data_image0
_chemical_formula_structural       O200Ti100
_chemical_formula_sum              "O200 Ti100"
_cell_length_a       14.6841
_cell_length_b       14.6841
_cell_length_c       30.1049
_cell_angle_alpha    90
_cell_angle_beta     90
_cell_angle_gamma    90

_space_group_name_H-M_alt    "P 1"
_space_group_IT_number       1

loop_
  _space_group_symop_operation_xyz
  'x, y, z'

loop_
  _atom_site_type_symbol
  _atom_site_label
  _atom_site_symmetry_multiplicity
  _atom_site_fract_x
  _atom_site_fract_y
  _atom_site_fract_z
  _atom_site_occupancy
  O   O1        1.0  0.99986  0.67973  0.41122  1.0000
  O   O2        1.0  0.00476  0.37814  0.36167  1.0000
  O   O3        1.0  0.02784  0.77890  0.33705  1.0000
  O   O4        1.0  0.04001  0.17800  0.48523  1.0000
  O   O5        1.0  0.01667  0.09620  0.27446  1.0000
  O   O6        1.0  0.00959  0.96230  0.35759  1.0000
  O   O7        1.0  0.05814  0.14588  0.39181  1.0000
  O   O8        1.0  0.05845  0.49830  0.43451  1.0000
  O   O9        1.0  0.02661  0.35735  0.12773  1.0000
  O   O10       1.0  0.04048  0.07828  0.03812  1.0000
  O   O11       1.0  0.05886  0.70764  0.49210  1.0000
  O   O12       1.0  0.04575  0.01784  0.44583  1.0000
  O   O13       1.0  0.05755  0.84858  0.41918  1.0000
  O   O14       1.0  0.05417  0.76781  0.08205  1.0000
  O   O15       1.0  0.06633  0.90943  0.12791  1.0000
  O   O16       1.0  0.09811  0.63223  0.02049  1.0000
  O   O17       1.0  0.05780  0.34884  0.47433  1.0000
  O   O18       1.0  0.09913  0.45313  0.28831  1.0000
  O   O19       1.0  0.08089  0.23741  0.31724  1.0000
  O   O20       1.0  0.08015  0.61817  0.24201  1.0000
  O   O21       1.0  0.07727  0.76919  0.17651  1.0000
  O   O22       1.0  0.08827  0.26307  0.04576  1.0000
  O   O23       1.0  0.09041  0.83647  0.00588  1.0000
  O   O24       1.0  0.08204  0.33162  0.23135  1.0000
  O   O25       1.0  0.12508  0.51797  0.35678  1.0000
  O   O26       1.0  0.12219  0.92048  0.21353  1.0000
  O   O27       1.0  0.11355  0.16991  0.21668  1.0000
  O   O28       1.0  0.12037  0.60453  0.11225  1.0000
  O   O29       1.0  0.12565  0.77886  0.26042  1.0000
  O   O30       1.0  0.16073  0.91886  0.30743  1.0000
  O   O31       1.0  0.14836  0.44067  0.08482  1.0000
  O   O32       1.0  0.14036  0.07061  0.13466  1.0000
  O   O33       1.0  0.13993  0.46381  0.17871  1.0000
  O   O34       1.0  0.16529  0.63242  0.43843  1.0000
  O   O35       1.0  0.15986  0.28981  0.40067  1.0000
  O   O36       1.0  0.19648  0.78514  0.37587  1.0000
  O   O37       1.0  0.20094  0.13299  0.45626  1.0000
  O   O38       1.0  0.18660  0.66247  0.30798  1.0000
  O   O39       1.0  0.17340  0.27348  0.14346  1.0000
  O   O40       1.0  0.19277  0.95188  0.39762  1.0000
  O   O41       1.0  0.23468  0.74965  -0.01668  1.0000
  O   O42       1.0  0.22284  0.11428  0.36530  1.0000
  O   O43       1.0  0.18633  0.94950  0.06380  1.0000
  O   O44       1.0  0.21359  0.03451  0.24651  1.0000
  O   O45       1.0  0.22099  0.53504  0.25183  1.0000
  O   O46       1.0  0.23471  0.11686  0.05607  1.0000
  O   O47       1.0  0.22820  0.34913  0.31173  1.0000
  O   O48       1.0  0.22159  0.81704  0.46433  1.0000
  O   O49       1.0  0.26391  0.19308  0.29638  1.0000
  O   O50       1.0  0.23239  0.62452  0.18351  1.0000
  O   O51       1.0  0.20850  0.96965  -0.01789  1.0000
  O   O52       1.0  0.23756  0.76620  0.12521  1.0000
  O   O53       1.0  0.25068  0.79667  0.21165  1.0000
  O   O54       1.0  0.26037  0.45543  0.45334  1.0000
  O   O55       1.0  0.25231  0.28573  0.48000  1.0000
  O   O56       1.0  0.27460  0.45570  0.37246  1.0000
  O   O57       1.0  0.26068  0.37318  0.22658  1.0000
  O   O58       1.0  0.25826  0.94955  0.15520  1.0000
  O   O59       1.0  0.28186  0.31647  0.07208  1.0000
  O   O60       1.0  0.26676  0.63500  0.05661  1.0000
  O   O61       1.0  0.28683  0.62016  0.38109  1.0000
  O   O62       1.0  0.28907  0.21066  0.21867  1.0000
  O   O63       1.0  0.28816  0.50705  0.13212  1.0000
  O   O64       1.0  0.30911  0.82234  0.29780  1.0000
  O   O65       1.0  0.31783  0.15198  0.13174  1.0000
  O   O66       1.0  0.35602  0.06233  0.43091  1.0000
  O   O67       1.0  0.33363  0.67341  0.25088  1.0000
  O   O68       1.0  0.34795  0.02737  0.30708  1.0000
  O   O69       1.0  0.34818  0.21145  0.39090  1.0000
  O   O70       1.0  0.35435  0.50590  0.30667  1.0000
  O   O71       1.0  0.31640  0.82645  0.05123  1.0000
  O   O72       1.0  0.35597  0.77546  0.39170  1.0000
  O   O73       1.0  0.35506  0.92230  0.23499  1.0000
  O   O74       1.0  0.35972  0.31711  0.14931  1.0000
  O   O75       1.0  0.37164  0.93851  0.37044  1.0000
  O   O76       1.0  0.37452  0.62665  0.47264  1.0000
  O   O77       1.0  0.36672  0.49801  0.04267  1.0000
  O   O78       1.0  0.41576  0.14209  0.04851  1.0000
  O   O79       1.0  0.38958  0.08209  0.20413  1.0000
  O   O80       1.0  0.37938  0.98578  0.10606  1.0000
  O   O81       1.0  0.38349  0.66999  0.11209  1.0000
  O   O82       1.0  0.39087  0.50320  0.21477  1.0000
  O   O83       1.0  0.39479  0.33658  0.32867  1.0000
  O   O84       1.0  0.41092  0.25022  0.47620  1.0000
  O   O85       1.0  0.42017  0.18766  0.27631  1.0000
  O   O86       1.0  0.39920  0.83833  0.16463  1.0000
  O   O87       1.0  0.41410  0.36902  0.41196  1.0000
  O   O88       1.0  0.38817  0.88794  0.45151  1.0000
  O   O89       1.0  0.41513  0.67124  0.32298  1.0000
  O   O90       1.0  0.42239  0.45035  0.50196  1.0000
  O   O91       1.0  0.42349  0.32159  0.23081  1.0000
  O   O92       1.0  0.42219  0.69315  0.00948  1.0000
  O   O93       1.0  0.44778  0.68565  0.19124  1.0000
  O   O94       1.0  0.45832  0.55459  0.40865  1.0000
  O   O95       1.0  0.41302  0.94336  0.01095  1.0000
  O   O96       1.0  0.45582  0.49133  0.11874  1.0000
  O   O97       1.0  0.44759  0.33936  0.07783  1.0000
  O   O98       1.0  0.47576  0.12212  0.35799  1.0000
  O   O99       1.0  0.48512  0.82104  0.25989  1.0000
  O   O100      1.0  0.48658  0.82761  0.34519  1.0000
  O   O101      1.0  0.48194  0.19908  0.12836  1.0000
  O   O102      1.0  0.50038  0.72843  0.42340  1.0000
  O   O103      1.0  0.47946  0.81441  0.07956  1.0000
  O   O104      1.0  0.51588  0.97075  0.29570  1.0000
  O   O105      1.0  0.52199  0.48689  0.26826  1.0000
  O   O106      1.0  0.51969  0.97118  0.16781  1.0000
  O   O107      1.0  0.53394  0.45851  0.35081  1.0000
  O   O108      1.0  0.55000  0.28600  0.32361  1.0000
  O   O109      1.0  0.53998  0.20137  0.20414  1.0000
  O   O110      1.0  0.53352  0.60758  0.07453  1.0000
  O   O111      1.0  0.53828  0.64620  0.26558  1.0000
  O   O112      1.0  0.53791  0.96691  0.39084  1.0000
  O   O113      1.0  0.53840  0.36519  0.16014  1.0000
  O   O114      1.0  0.54610  0.64444  0.50131  1.0000
  O   O115      1.0  0.55540  0.53307  0.19032  1.0000
  O   O116      1.0  0.60205  0.16671  0.02913  1.0000
  O   O117      1.0  0.57504  0.47522  0.44959  1.0000
  O   O118      1.0  0.56177  0.98939  0.06445  1.0000
  O   O119      1.0  0.56102  0.24336  0.41170  1.0000
  O   O120      1.0  0.56710  0.84561  0.00572  1.0000
  O   O121      1.0  0.59158  0.34555  0.24959  1.0000
  O   O122      1.0  0.59253  0.64686  0.35074  1.0000
  O   O123      1.0  0.57455  0.86317  0.45477  1.0000
  O   O124      1.0  0.59802  0.12632  0.29157  1.0000
  O   O125      1.0  0.57721  0.40566  0.03404  1.0000
  O   O126      1.0  0.60560  0.67449  0.14518  1.0000
  O   O127      1.0  0.62677  0.29798  0.09403  1.0000
  O   O128      1.0  0.61602  0.09494  0.46507  1.0000
  O   O129      1.0  0.64612  0.80607  0.29843  1.0000
  O   O130      1.0  0.65014  0.63425  0.43122  1.0000
  O   O131      1.0  0.65158  0.49346  0.11281  1.0000
  O   O132      1.0  0.65246  0.29729  0.49509  1.0000
  O   O133      1.0  0.64220  0.84543  0.20171  1.0000
  O   O134      1.0  0.65910  0.73110  0.05632  1.0000
  O   O135      1.0  0.65193  0.00542  0.22840  1.0000
  O   O136      1.0  0.67740  0.04510  0.38337  1.0000
  O   O137      1.0  0.66607  0.87459  0.11756  1.0000
  O   O138      1.0  0.67788  0.96849  0.30700  1.0000
  O   O139      1.0  0.66416  0.07276  0.12878  1.0000
  O   O140      1.0  0.70634  0.49835  0.37983  1.0000
  O   O141      1.0  0.69317  0.50613  0.28343  1.0000
  O   O142      1.0  0.73493  0.30020  0.00643  1.0000
  O   O143      1.0  0.69163  0.67769  0.22797  1.0000
  O   O144      1.0  0.71292  0.35208  0.32638  1.0000
  O   O145      1.0  0.70106  0.31076  0.17273  1.0000
  O   O146      1.0  0.71088  0.83916  0.38512  1.0000
  O   O147      1.0  0.73736  0.74133  0.47515  1.0000
  O   O148      1.0  0.72569  0.49290  0.20037  1.0000
  O   O149      1.0  0.74357  0.50789  0.48182  1.0000
  O   O150      1.0  0.71375  0.34331  0.42092  1.0000
  O   O151      1.0  0.72058  0.97620  0.04209  1.0000
  O   O152      1.0  0.74510  0.19589  0.24549  1.0000
  O   O153      1.0  0.73701  0.94145  0.45560  1.0000
  O   O154      1.0  0.76933  0.83130  0.03214  1.0000
  O   O155      1.0  0.75867  0.70305  0.11937  1.0000
  O   O156      1.0  0.75541  0.14848  0.32466  1.0000
  O   O157      1.0  0.78996  0.40430  0.08067  1.0000
  O   O158      1.0  0.76764  0.59953  0.05246  1.0000
  O   O159      1.0  0.78405  0.98248  0.17260  1.0000
  O   O160      1.0  0.80686  0.35729  0.25276  1.0000
  O   O161      1.0  0.77370  0.12773  0.07187  1.0000
  O   O162      1.0  0.76461  0.17418  0.42383  1.0000
  O   O163      1.0  0.79994  0.85453  0.25055  1.0000
  O   O164      1.0  0.82774  0.53592  0.13246  1.0000
  O   O165      1.0  0.82462  0.65469  0.40153  1.0000
  O   O166      1.0  0.81929  0.74315  0.31704  1.0000
  O   O167      1.0  0.82644  0.72910  0.18963  1.0000
  O   O168      1.0  0.83224  0.96550  0.34003  1.0000
  O   O169      1.0  0.83733  0.03917  0.26138  1.0000
  O   O170      1.0  0.88530  0.44046  0.01428  1.0000
  O   O171      1.0  0.82423  0.18453  0.15600  1.0000
  O   O172      1.0  0.84995  0.59563  0.23910  1.0000
  O   O173      1.0  0.85869  0.46908  0.32752  1.0000
  O   O174      1.0  0.85635  0.36333  0.16200  1.0000
  O   O175      1.0  0.84625  0.28837  0.36012  1.0000
  O   O176      1.0  0.89647  0.87373  0.46710  1.0000
  O   O177      1.0  0.92146  0.23754  0.00276  1.0000
  O   O178      1.0  0.87731  0.43369  0.42136  1.0000
  O   O179      1.0  0.88189  0.83035  0.38953  1.0000
  O   O180      1.0  0.89544  0.60826  0.47879  1.0000
  O   O181      1.0  0.89573  0.00942  0.10196  1.0000
  O   O182      1.0  0.92264  0.25691  0.29282  1.0000
  O   O183      1.0  0.88376  0.04244  0.42267  1.0000
  O   O184      1.0  0.92684  0.92092  0.01550  1.0000
  O   O185      1.0  0.89070  0.83113  0.08798  1.0000
  O   O186      1.0  0.92357  0.69936  0.03422  1.0000
  O   O187      1.0  0.91524  0.12139  0.34738  1.0000
  O   O188      1.0  0.89919  0.27409  0.08067  1.0000
  O   O189      1.0  0.95494  0.25699  0.41842  1.0000
  O   O190      1.0  0.95533  0.46957  0.26191  1.0000
  O   O191      1.0  0.94847  0.67771  0.12968  1.0000
  O   O192      1.0  0.93464  0.86450  0.18531  1.0000
  O   O193      1.0  0.95571  0.73934  0.25706  1.0000
  O   O194      1.0  0.97165  0.92952  0.26278  1.0000
  O   O195      1.0  0.97454  0.52611  0.08274  1.0000
  O   O196      1.0  0.97426  0.61101  0.32792  1.0000
  O   O197      1.0  0.93590  0.24093  0.20598  1.0000
  O   O198      1.0  0.98825  0.03860  0.18689  1.0000
  O   O199      1.0  0.98371  0.52762  0.17904  1.0000
  O   O200      1.0  0.99438  0.16297  0.11600  1.0000
  Ti  Ti1       1.0  0.01230  0.61052  0.46048  1.0000
  Ti  Ti2       1.0  0.02057  0.03885  0.12952  1.0000
  Ti  Ti3       1.0  0.02442  0.83425  0.23071  1.0000
  Ti  Ti4       1.0  0.01812  0.23264  0.25324  1.0000
  Ti  Ti5       1.0  0.05494  0.68764  0.29831  1.0000
  Ti  Ti6       1.0  0.06855  0.49433  0.23034  1.0000
  Ti  Ti7       1.0  0.06282  0.47701  0.12777  1.0000
  Ti  Ti8       1.0  0.08545  0.05061  0.22980  1.0000
  Ti  Ti9       1.0  0.10719  0.87650  0.35804  1.0000
  Ti  Ti10      1.0  0.14780  0.06512  0.41333  1.0000
  Ti  Ti11      1.0  0.13606  0.25909  0.46075  1.0000
  Ti  Ti12      1.0  0.12401  0.75220  0.44574  1.0000
  Ti  Ti13      1.0  0.15774  0.31906  0.08755  1.0000
  Ti  Ti14      1.0  0.15832  0.04302  0.02677  1.0000
  Ti  Ti15      1.0  0.17224  0.85907  0.15749  1.0000
  Ti  Ti16      1.0  0.18251  0.27937  0.20183  1.0000
  Ti  Ti17      1.0  0.21351  0.64098  0.00418  1.0000
  Ti  Ti18      1.0  0.18907  0.52166  0.41429  1.0000
  Ti  Ti19      1.0  0.20492  0.67682  0.23935  1.0000
  Ti  Ti20      1.0  0.18998  0.23871  0.34664  1.0000
  Ti  Ti21      1.0  0.21563  0.47833  0.31597  1.0000
  Ti  Ti22      1.0  0.21217  0.86582  0.01385  1.0000
  Ti  Ti23      1.0  0.22565  0.89852  0.25669  1.0000
  Ti  Ti24      1.0  0.24328  0.63206  0.12329  1.0000
  Ti  Ti25      1.0  0.25239  0.05516  0.11055  1.0000
  Ti  Ti26      1.0  0.26879  0.48841  0.19902  1.0000
  Ti  Ti27      1.0  0.28292  0.71628  0.34118  1.0000
  Ti  Ti28      1.0  0.38146  0.22854  0.08852  1.0000
  Ti  Ti29      1.0  0.28406  0.86930  0.41908  1.0000
  Ti  Ti30      1.0  0.32182  0.09881  0.25796  1.0000
  Ti  Ti31      1.0  0.32804  0.17946  0.45133  1.0000
  Ti  Ti32      1.0  0.32592  0.29681  0.27569  1.0000
  Ti  Ti33      1.0  0.35137  0.07555  0.37053  1.0000
  Ti  Ti34      1.0  0.35277  0.37219  0.46763  1.0000
  Ti  Ti35      1.0  0.35278  0.42525  0.09259  1.0000
  Ti  Ti36      1.0  0.38666  0.65826  0.41673  1.0000
  Ti  Ti37      1.0  0.36387  0.80344  0.10693  1.0000
  Ti  Ti38      1.0  0.38701  0.78374  0.22267  1.0000
  Ti  Ti39      1.0  0.39973  0.44312  0.36193  1.0000
  Ti  Ti40      1.0  0.39665  0.97193  0.17380  1.0000
  Ti  Ti41      1.0  0.40649  0.90539  0.31040  1.0000
  Ti  Ti42      1.0  0.40024  0.22342  0.18104  1.0000
  Ti  Ti43      1.0  0.42131  0.58750  0.27347  1.0000
  Ti  Ti44      1.0  0.41214  0.61339  0.05426  1.0000
  Ti  Ti45      1.0  0.44975  0.82039  0.02114  1.0000
  Ti  Ti46      1.0  0.47079  0.25225  0.37261  1.0000
  Ti  Ti47      1.0  0.44337  0.02036  0.05479  1.0000
  Ti  Ti48      1.0  0.47638  0.54753  0.47646  1.0000
  Ti  Ti49      1.0  0.47268  0.85758  0.41025  1.0000
  Ti  Ti50      1.0  0.49298  0.61107  0.15078  1.0000
  Ti  Ti51      1.0  0.49576  0.42061  0.21585  1.0000
  Ti  Ti52      1.0  0.53630  0.22557  0.26719  1.0000
  Ti  Ti53      1.0  0.53864  0.72717  0.31533  1.0000
  Ti  Ti54      1.0  0.62792  0.29055  0.03312  1.0000
  Ti  Ti55      1.0  0.55408  0.41670  0.09398  1.0000
  Ti  Ti56      1.0  0.57699  0.03866  0.34198  1.0000
  Ti  Ti57      1.0  0.59795  0.54948  0.38951  1.0000
  Ti  Ti58      1.0  0.60314  0.89902  0.26188  1.0000
  Ti  Ti59      1.0  0.60422  0.40417  0.30541  1.0000
  Ti  Ti60      1.0  0.59711  0.72669  0.46380  1.0000
  Ti  Ti61      1.0  0.59013  0.25418  0.15392  1.0000
  Ti  Ti62      1.0  0.64330  0.86438  0.05316  1.0000
  Ti  Ti63      1.0  0.62779  0.98474  0.43795  1.0000
  Ti  Ti64      1.0  0.63277  0.56754  0.23814  1.0000
  Ti  Ti65      1.0  0.64295  0.95596  0.16346  1.0000
  Ti  Ti66      1.0  0.65488  0.62603  0.08951  1.0000
  Ti  Ti67      1.0  0.67344  0.40927  0.46788  1.0000
  Ti  Ti68      1.0  0.65848  0.08170  0.06323  1.0000
  Ti  Ti69      1.0  0.65448  0.21341  0.44958  1.0000
  Ti  Ti70      1.0  0.69999  0.74573  0.17488  1.0000
  Ti  Ti71      1.0  0.71544  0.07977  0.26925  1.0000
  Ti  Ti72      1.0  0.74868  0.43456  0.14932  1.0000
  Ti  Ti73      1.0  0.75595  0.85891  0.33231  1.0000
  Ti  Ti74      1.0  0.77857  0.61834  0.45679  1.0000
  Ti  Ti75      1.0  0.79014  0.83539  0.43996  1.0000
  Ti  Ti76      1.0  0.79316  0.26390  0.30446  1.0000
  Ti  Ti77      1.0  0.79032  0.40160  0.37924  1.0000
  Ti  Ti78      1.0  0.80197  0.72796  0.06323  1.0000
  Ti  Ti79      1.0  0.79685  0.09438  0.38192  1.0000
  Ti  Ti80      1.0  0.79712  0.08269  0.12868  1.0000
  Ti  Ti81      1.0  0.84768  0.32565  0.02877  1.0000
  Ti  Ti82      1.0  0.82519  0.47909  0.26902  1.0000
  Ti  Ti83      1.0  0.82907  0.72041  0.25534  1.0000
  Ti  Ti84      1.0  0.80384  0.27384  0.20491  1.0000
  Ti  Ti85      1.0  0.84247  0.93516  0.05640  1.0000
  Ti  Ti86      1.0  0.84986  0.50354  0.06397  1.0000
  Ti  Ti87      1.0  0.85708  0.94436  0.22077  1.0000
  Ti  Ti88      1.0  0.88502  0.60701  0.17240  1.0000
  Ti  Ti89      1.0  0.91005  0.71313  0.36966  1.0000
  Ti  Ti90      1.0  0.97605  0.13481  0.44107  1.0000
  Ti  Ti91      1.0  0.93398  0.01484  0.31326  1.0000
  Ti  Ti92      1.0  0.93904  0.27108  0.13983  1.0000
  Ti  Ti93      1.0  0.96027  0.92998  0.42373  1.0000
  Ti  Ti94      1.0  0.97357  0.23786  0.35481  1.0000
  Ti  Ti95      1.0  0.99094  0.38664  0.42523  1.0000
  Ti  Ti96      1.0  0.98824  0.19331  0.04907  1.0000
  Ti  Ti97      1.0  0.98479  0.80219  0.13670  1.0000
  Ti  Ti98      1.0  0.99872  0.48070  0.32486  1.0000
  Ti  Ti99      1.0  0.98589  0.81310  0.03348  1.0000
  Ti  Ti100     1.0  0.02783  0.64124  0.07314  1.0000
