data_image0
_chemical_formula_structural       O36Ti18
_chemical_formula_sum              "O36 Ti18"
_cell_length_a       8.265
_cell_length_b       8.265
_cell_length_c       24.072
_cell_angle_alpha    90
_cell_angle_beta     90
_cell_angle_gamma    90

_space_group_name_H-M_alt    "P 1"
_space_group_IT_number       1

loop_
  _space_group_symop_operation_xyz
  'x, y, z'

loop_
  _atom_site_type_symbol
  _atom_site_label
  _atom_site_symmetry_multiplicity
  _atom_site_fract_x
  _atom_site_fract_y
  _atom_site_fract_z
  _atom_site_occupancy
  O   O1        1.0  0.10889  0.59626  0.10389  1.0000
  O   O2        1.0  0.12975  0.94870  0.35093  1.0000
  O   O3        1.0  0.18013  0.55435  0.25490  1.0000
  O   O4        1.0  0.18452  0.89330  0.23906  1.0000
  O   O5        1.0  0.21610  0.12675  0.11087  1.0000
  O   O6        1.0  0.27352  0.42717  0.04247  1.0000
  O   O7        1.0  0.28613  0.81624  0.06769  1.0000
  O   O8        1.0  0.30056  0.71885  0.17126  1.0000
  O   O9        1.0  0.30796  0.17129  0.21445  1.0000
  O   O10       1.0  0.33324  0.41132  0.14210  1.0000
  O   O11       1.0  0.34614  0.67827  0.35368  1.0000
  O   O12       1.0  0.36231  0.13202  0.00656  1.0000
  O   O13       1.0  0.45323  0.93933  0.29169  1.0000
  O   O14       1.0  0.46564  0.33304  0.31313  1.0000
  O   O15       1.0  0.46949  0.98331  0.15207  1.0000
  O   O16       1.0  0.47438  0.06706  0.38110  1.0000
  O   O17       1.0  0.50685  0.63384  0.25623  1.0000
  O   O18       1.0  0.51626  0.22130  0.08928  1.0000
  O   O19       1.0  0.55836  0.51241  0.05492  1.0000
  O   O20       1.0  0.57692  0.68600  0.13198  1.0000
  O   O21       1.0  0.61603  0.17065  0.23205  1.0000
  O   O22       1.0  0.62684  0.96335  0.06332  1.0000
  O   O23       1.0  0.66688  0.38530  0.16132  1.0000
  O   O24       1.0  0.67287  0.83922  0.21114  1.0000
  O   O25       1.0  0.67412  0.25335  -0.00031  1.0000
  O   O26       1.0  0.77119  0.03265  0.32447  1.0000
  O   O27       1.0  0.78496  0.09893  0.13920  1.0000
  O   O28       1.0  0.79357  0.42063  0.25983  1.0000
  O   O29       1.0  0.83595  0.73634  0.08387  1.0000
  O   O30       1.0  0.87069  0.60767  0.17659  1.0000
  O   O31       1.0  0.88904  0.35739  0.07700  1.0000
  O   O32       1.0  0.92153  0.75030  0.26664  1.0000
  O   O33       1.0  0.95355  0.09348  0.23930  1.0000
  O   O34       1.0  0.96051  0.00907  0.05036  1.0000
  O   O35       1.0  0.02263  0.28833  0.16765  1.0000
  O   O36       1.0  0.03155  0.88139  0.15230  1.0000
  Ti  Ti1       1.0  0.05093  0.81381  0.07600  1.0000
  Ti  Ti2       1.0  0.08140  0.69245  0.20363  1.0000
  Ti  Ti3       1.0  0.12333  0.07631  0.18588  1.0000
  Ti  Ti4       1.0  0.12448  0.35726  0.10022  1.0000
  Ti  Ti5       1.0  0.34298  0.89950  0.36112  1.0000
  Ti  Ti6       1.0  0.35347  0.51725  0.30033  1.0000
  Ti  Ti7       1.0  0.36895  0.61073  0.10244  1.0000
  Ti  Ti8       1.0  0.39857  0.01742  0.07180  1.0000
  Ti  Ti9       1.0  0.43183  0.84901  0.22026  1.0000
  Ti  Ti10      1.0  0.46821  0.32997  0.01663  1.0000
  Ti  Ti11      1.0  0.47790  0.24415  0.16981  1.0000
  Ti  Ti12      1.0  0.57381  0.13594  0.31234  1.0000
  Ti  Ti13      1.0  0.70437  0.88162  0.13375  1.0000
  Ti  Ti14      1.0  0.73599  0.63123  0.24256  1.0000
  Ti  Ti15      1.0  0.74717  0.53120  0.10498  1.0000
  Ti  Ti16      1.0  0.78209  0.14890  0.05694  1.0000
  Ti  Ti17      1.0  0.81953  0.25597  0.20618  1.0000
  Ti  Ti18      1.0  0.96604  0.95111  0.29995  1.0000
