data_image0
_chemical_formula_structural       O2TiOTi2O2TiO2TiOTiO3Ti2O4TiO3TiOTiO4TiO2Ti4O5TiO4TiO2
_chemical_formula_sum              "O36 Ti18"
_cell_length_a       8.34285
_cell_length_b       8.25978
_cell_length_c       23.3777
_cell_angle_alpha    90
_cell_angle_beta     90
_cell_angle_gamma    90

_space_group_name_H-M_alt    "P 1"
_space_group_IT_number       1

loop_
  _space_group_symop_operation_xyz
  'x, y, z'

loop_
  _atom_site_type_symbol
  _atom_site_label
  _atom_site_symmetry_multiplicity
  _atom_site_fract_x
  _atom_site_fract_y
  _atom_site_fract_z
  _atom_site_occupancy
  O   O1        1.0  0.07120  0.27535  0.25012  1.0000
  O   O2        1.0  0.04819  0.08529  0.34005  1.0000
  Ti  Ti1       1.0  0.24139  0.16362  0.21064  1.0000
  O   O3        1.0  0.10777  0.01421  0.16603  1.0000
  Ti  Ti2       1.0  0.09646  0.50819  0.22069  1.0000
  Ti  Ti3       1.0  0.05320  0.40885  0.08341  1.0000
  O   O4        1.0  0.18547  0.59568  0.09172  1.0000
  O   O5        1.0  0.10863  0.49344  0.35186  1.0000
  Ti  Ti4       1.0  0.17409  0.81462  0.11531  1.0000
  O   O6        1.0  0.06593  0.72209  0.18450  1.0000
  O   O7        1.0  0.19252  0.78614  0.37443  1.0000
  Ti  Ti5       1.0  0.24357  0.98370  0.34280  1.0000
  O   O8        1.0  0.40140  0.11873  0.15055  1.0000
  Ti  Ti6       1.0  0.39239  0.12965  0.06802  1.0000
  O   O9        1.0  0.43956  0.23360  0.25366  1.0000
  O   O10       1.0  0.28206  0.32458  0.07229  1.0000
  O   O11       1.0  0.39081  0.13619  0.36287  1.0000
  Ti  Ti7       1.0  0.38967  0.50114  0.11962  1.0000
  Ti  Ti8       1.0  0.30330  0.60826  0.34631  1.0000
  O   O12       1.0  0.47043  0.46656  0.34948  1.0000
  O   O13       1.0  0.26067  0.61694  0.26450  1.0000
  O   O14       1.0  0.24823  0.39260  0.17571  1.0000
  O   O15       1.0  0.44262  0.80961  0.31969  1.0000
  Ti  Ti9       1.0  0.39974  0.78542  0.23555  1.0000
  O   O16       1.0  0.36405  0.72239  0.15968  1.0000
  O   O17       1.0  0.27921  0.94410  0.06360  1.0000
  O   O18       1.0  0.26048  0.97028  0.25906  1.0000
  Ti  Ti10      1.0  0.59178  0.16567  0.19241  1.0000
  O   O19       1.0  0.60464  0.18041  0.06140  1.0000
  Ti  Ti11      1.0  0.54772  0.26510  0.32969  1.0000
  O   O20       1.0  0.67966  0.07821  0.32141  1.0000
  O   O21       1.0  0.56668  0.39849  0.16306  1.0000
  O   O22       1.0  0.54521  0.58687  0.07294  1.0000
  O   O23       1.0  0.60272  0.65985  0.24722  1.0000
  Ti  Ti12      1.0  0.73662  0.51036  0.20255  1.0000
  O   O24       1.0  0.68790  0.88843  0.03916  1.0000
  O   O25       1.0  0.56023  0.95262  0.22862  1.0000
  Ti  Ti13      1.0  0.66878  0.85967  0.29784  1.0000
  Ti  Ti14      1.0  0.73995  0.69072  0.07050  1.0000
  Ti  Ti15      1.0  0.88424  0.17249  0.29342  1.0000
  Ti  Ti16      1.0  0.79916  0.06565  0.06699  1.0000
  O   O26       1.0  0.96584  0.20776  0.06355  1.0000
  O   O27       1.0  0.75670  0.05741  0.14879  1.0000
  O   O28       1.0  0.74362  0.28119  0.23738  1.0000
  O   O29       1.0  0.89666  0.55536  0.26257  1.0000
  O   O30       1.0  0.88795  0.53891  0.05017  1.0000
  Ti  Ti17      1.0  0.88715  0.54427  0.34509  1.0000
  O   O31       1.0  0.93503  0.44062  0.15939  1.0000
  O   O32       1.0  0.77672  0.34931  0.34072  1.0000
  O   O33       1.0  0.93855  0.86519  0.09359  1.0000
  O   O34       1.0  0.85838  0.95166  0.25342  1.0000
  Ti  Ti18      1.0  0.89568  0.88925  0.17769  1.0000
  O   O35       1.0  0.77402  0.73053  0.34959  1.0000
  O   O36       1.0  0.75637  0.70447  0.15427  1.0000
