data_image0
_chemical_formula_structural       O2Ti2O2TiOTiO3TiO5Ti2O3TiO3TiO2TiO3TiO3TiOTiOTiOTi2O4TiOTiO
_chemical_formula_sum              "O36 Ti18"
_cell_length_a       8.24353
_cell_length_b       8.16145
_cell_length_c       23.278
_cell_angle_alpha    90
_cell_angle_beta     90
_cell_angle_gamma    90

_space_group_name_H-M_alt    "P 1"
_space_group_IT_number       1

loop_
  _space_group_symop_operation_xyz
  'x, y, z'

loop_
  _atom_site_type_symbol
  _atom_site_label
  _atom_site_symmetry_multiplicity
  _atom_site_fract_x
  _atom_site_fract_y
  _atom_site_fract_z
  _atom_site_occupancy
  O   O1        1.0  0.08758  0.26187  0.34098  1.0000
  O   O2        1.0  0.05456  0.26590  0.14117  1.0000
  Ti  Ti1       1.0  0.22994  0.11696  0.14922  1.0000
  Ti  Ti2       1.0  0.20131  0.55643  0.23655  1.0000
  O   O3        1.0  0.22606  0.44186  0.06069  1.0000
  O   O4        1.0  0.18086  0.59230  0.15337  1.0000
  Ti  Ti3       1.0  0.01599  0.43968  0.08441  1.0000
  O   O5        1.0  0.02199  0.40408  0.24585  1.0000
  Ti  Ti4       1.0  0.13315  0.79764  0.10911  1.0000
  O   O6        1.0  0.08107  0.94282  0.16941  1.0000
  O   O7        1.0  0.11893  0.98403  0.29223  1.0000
  O   O8        1.0  0.04008  0.70742  0.26260  1.0000
  Ti  Ti5       1.0  0.22663  0.79403  0.32072  1.0000
  O   O9        1.0  0.05837  0.74111  0.37183  1.0000
  O   O10       1.0  0.22096  0.00256  0.07934  1.0000
  O   O11       1.0  0.44909  0.27574  0.30974  1.0000
  O   O12       1.0  0.40170  0.28501  0.13485  1.0000
  O   O13       1.0  0.28967  0.16091  0.22631  1.0000
  Ti  Ti6       1.0  0.25885  0.14812  0.30947  1.0000
  Ti  Ti7       1.0  0.38825  0.52004  0.11102  1.0000
  O   O14       1.0  0.40779  0.44922  0.22400  1.0000
  O   O15       1.0  0.31389  0.57804  0.31360  1.0000
  O   O16       1.0  0.33495  0.73352  0.07589  1.0000
  Ti  Ti8       1.0  0.44900  0.93379  0.06641  1.0000
  O   O17       1.0  0.31781  0.77848  0.23651  1.0000
  O   O18       1.0  0.38411  0.96839  0.33728  1.0000
  O   O19       1.0  0.43418  0.98007  0.15039  1.0000
  Ti  Ti9       1.0  0.65365  0.26691  0.07224  1.0000
  O   O20       1.0  0.56959  0.02498  0.25039  1.0000
  O   O21       1.0  0.69186  0.21748  0.15148  1.0000
  Ti  Ti10      1.0  0.51526  0.23122  0.21260  1.0000
  O   O22       1.0  0.73541  0.16254  0.34781  1.0000
  O   O23       1.0  0.52354  0.11658  0.03915  1.0000
  O   O24       1.0  0.59970  0.48869  0.07739  1.0000
  Ti  Ti11      1.0  0.53928  0.48983  0.29944  1.0000
  O   O25       1.0  0.69573  0.35844  0.24702  1.0000
  O   O26       1.0  0.53086  0.66355  0.15610  1.0000
  O   O27       1.0  0.65190  0.84030  0.07141  1.0000
  Ti  Ti12      1.0  0.53521  0.83382  0.21148  1.0000
  O   O28       1.0  0.58879  0.70616  0.27804  1.0000
  Ti  Ti13      1.0  0.61820  0.98581  0.33323  1.0000
  O   O29       1.0  0.66322  0.81446  0.38650  1.0000
  Ti  Ti14      1.0  0.73890  0.67648  0.11626  1.0000
  O   O30       1.0  0.89741  0.13199  0.24226  1.0000
  Ti  Ti15      1.0  0.88368  0.29733  0.31178  1.0000
  Ti  Ti16      1.0  0.87509  0.30790  0.19243  1.0000
  O   O31       1.0  0.86128  0.31479  0.04963  1.0000
  O   O32       1.0  0.85079  0.48937  0.14471  1.0000
  O   O33       1.0  0.77169  0.49968  0.33685  1.0000
  O   O34       1.0  0.81719  0.88851  0.30339  1.0000
  Ti  Ti17      1.0  0.94860  0.91614  0.23803  1.0000
  O   O35       1.0  0.77715  0.82405  0.18416  1.0000
  Ti  Ti18      1.0  0.84492  0.71207  0.35511  1.0000
  O   O36       1.0  0.96330  0.67723  0.07949  1.0000
