data_image0
_chemical_formula_structural       O3TiOTi3OTiO3Ti2O4TiO2TiO2Ti2O3TiO6TiOTiO3TiO4Ti2O3Ti
_chemical_formula_sum              "O36 Ti18"
_cell_length_a       8.30612
_cell_length_b       8.22342
_cell_length_c       23.3408
_cell_angle_alpha    90
_cell_angle_beta     90
_cell_angle_gamma    90

_space_group_name_H-M_alt    "P 1"
_space_group_IT_number       1

loop_
  _space_group_symop_operation_xyz
  'x, y, z'

loop_
  _atom_site_type_symbol
  _atom_site_label
  _atom_site_symmetry_multiplicity
  _atom_site_fract_x
  _atom_site_fract_y
  _atom_site_fract_z
  _atom_site_occupancy
  O   O1        1.0  0.10947  0.13587  0.29950  1.0000
  O   O2        1.0  0.21640  0.10225  0.12870  1.0000
  O   O3        1.0  0.10380  0.31928  0.20704  1.0000
  Ti  Ti1       1.0  0.17499  0.14985  0.38018  1.0000
  O   O4        1.0  0.01057  0.02121  0.20161  1.0000
  Ti  Ti2       1.0  0.00096  0.19568  0.14538  1.0000
  Ti  Ti3       1.0  0.09345  0.54815  0.24059  1.0000
  Ti  Ti4       1.0  0.10032  0.58324  0.08764  1.0000
  O   O5        1.0  0.20414  0.59436  0.16711  1.0000
  Ti  Ti5       1.0  0.18399  0.88970  0.17615  1.0000
  O   O6        1.0  0.18011  0.77180  0.25080  1.0000
  O   O7        1.0  0.05515  0.81305  0.11571  1.0000
  O   O8        1.0  0.36420  0.06307  0.02751  1.0000
  Ti  Ti6       1.0  0.39472  0.21863  0.08390  1.0000
  Ti  Ti7       1.0  0.27692  0.23081  0.24968  1.0000
  O   O9        1.0  0.46916  0.23967  0.29539  1.0000
  O   O10       1.0  0.43508  0.31556  0.19238  1.0000
  O   O11       1.0  0.33744  0.01330  0.22552  1.0000
  O   O12       1.0  0.30012  0.32922  0.38323  1.0000
  Ti  Ti8       1.0  0.40853  0.51441  0.14688  1.0000
  O   O13       1.0  0.28415  0.45940  0.27554  1.0000
  O   O14       1.0  0.27460  0.41148  0.09068  1.0000
  Ti  Ti9       1.0  0.45486  0.44645  0.34243  1.0000
  O   O15       1.0  0.41559  0.66568  0.34797  1.0000
  O   O16       1.0  0.38815  0.81393  0.14013  1.0000
  Ti  Ti10      1.0  0.40971  0.86631  0.05638  1.0000
  Ti  Ti11      1.0  0.35127  0.83181  0.30218  1.0000
  O   O17       1.0  0.28622  0.97187  0.35948  1.0000
  O   O18       1.0  0.26596  0.69618  0.04783  1.0000
  O   O19       1.0  0.67306  0.06082  0.23468  1.0000
  Ti  Ti12      1.0  0.63912  0.28855  0.24133  1.0000
  O   O20       1.0  0.52546  0.06515  0.11971  1.0000
  O   O21       1.0  0.60955  0.56587  0.17423  1.0000
  O   O22       1.0  0.63867  0.49510  0.27851  1.0000
  O   O23       1.0  0.56253  0.39140  0.09360  1.0000
  O   O24       1.0  0.64514  0.41769  0.38443  1.0000
  O   O25       1.0  0.62546  0.82748  0.05461  1.0000
  Ti  Ti13      1.0  0.54039  0.94652  0.18582  1.0000
  O   O26       1.0  0.51859  0.79104  0.24780  1.0000
  Ti  Ti14      1.0  0.72264  0.68096  0.23693  1.0000
  O   O27       1.0  0.73185  0.83544  0.16599  1.0000
  O   O28       1.0  0.80883  0.23984  0.29787  1.0000
  O   O29       1.0  0.88150  0.06915  0.09351  1.0000
  Ti  Ti15      1.0  0.89218  0.04077  0.27081  1.0000
  O   O30       1.0  0.78568  0.29204  0.17797  1.0000
  O   O31       1.0  0.97411  0.24034  0.39702  1.0000
  O   O32       1.0  0.89804  0.58081  0.19629  1.0000
  O   O33       1.0  0.85869  0.63262  0.07666  1.0000
  Ti  Ti16      1.0  0.76710  0.46611  0.12359  1.0000
  Ti  Ti17      1.0  0.84832  0.38983  0.35766  1.0000
  O   O34       1.0  0.97536  0.38686  0.10251  1.0000
  O   O35       1.0  0.96786  0.51478  0.30745  1.0000
  O   O36       1.0  0.84166  0.82930  0.28060  1.0000
  Ti  Ti18      1.0  0.82416  0.85875  0.09163  1.0000
