data_image0
_chemical_formula_structural       OTiO2TiO3Ti3O4TiOTi2O3TiO2Ti2O3TiO3TiO2TiO2TiO2TiO6Ti2O2
_chemical_formula_sum              "O36 Ti18"
_cell_length_a       8.29884
_cell_length_b       8.21621
_cell_length_c       23.3335
_cell_angle_alpha    90
_cell_angle_beta     90
_cell_angle_gamma    90

_space_group_name_H-M_alt    "P 1"
_space_group_IT_number       1

loop_
  _space_group_symop_operation_xyz
  'x, y, z'

loop_
  _atom_site_type_symbol
  _atom_site_label
  _atom_site_symmetry_multiplicity
  _atom_site_fract_x
  _atom_site_fract_y
  _atom_site_fract_z
  _atom_site_occupancy
  O   O1        1.0  0.04550  0.17795  0.24752  1.0000
  Ti  Ti1       1.0  0.04431  0.10330  0.08335  1.0000
  O   O2        1.0  0.22804  0.13187  0.33708  1.0000
  O   O3        1.0  0.13171  0.31381  0.07560  1.0000
  Ti  Ti2       1.0  0.06767  0.00470  0.30599  1.0000
  O   O4        1.0  0.11320  0.54276  0.25263  1.0000
  O   O5        1.0  0.12627  0.63378  0.04837  1.0000
  O   O6        1.0  0.22699  0.49976  0.15313  1.0000
  Ti  Ti3       1.0  0.16492  0.35043  0.21319  1.0000
  Ti  Ti4       1.0  0.01243  0.51684  0.10356  1.0000
  Ti  Ti5       1.0  0.02040  0.66523  0.31289  1.0000
  O   O7        1.0  0.03722  0.83177  0.24742  1.0000
  O   O8        1.0  0.20463  0.78959  0.33277  1.0000
  O   O9        1.0  0.19072  0.96009  0.05859  1.0000
  O   O10       1.0  0.03018  0.71407  0.15176  1.0000
  Ti  Ti6       1.0  0.23179  0.73350  0.19770  1.0000
  O   O11       1.0  0.29565  0.21029  0.16233  1.0000
  Ti  Ti7       1.0  0.39451  0.27803  0.33799  1.0000
  Ti  Ti8       1.0  0.44527  0.11011  0.21523  1.0000
  O   O12       1.0  0.47922  0.19688  0.06938  1.0000
  O   O13       1.0  0.38028  0.32637  0.25151  1.0000
  O   O14       1.0  0.42612  0.55768  0.05762  1.0000
  Ti  Ti9       1.0  0.35946  0.36679  0.09910  1.0000
  O   O15       1.0  0.40377  0.65051  0.24759  1.0000
  O   O16       1.0  0.29157  0.47894  0.35279  1.0000
  Ti  Ti10      1.0  0.40028  0.66887  0.33078  1.0000
  Ti  Ti11      1.0  0.30472  0.76705  0.05206  1.0000
  O   O17       1.0  0.37672  0.76342  0.13304  1.0000
  O   O18       1.0  0.30881  0.94302  0.22377  1.0000
  O   O19       1.0  0.62696  0.13530  0.16587  1.0000
  Ti  Ti12      1.0  0.62475  0.03204  0.08420  1.0000
  O   O20       1.0  0.53043  0.10291  0.29158  1.0000
  O   O21       1.0  0.72865  0.32964  0.25225  1.0000
  O   O22       1.0  0.58455  0.25097  0.38072  1.0000
  Ti  Ti13      1.0  0.57777  0.50268  0.23318  1.0000
  O   O23       1.0  0.56967  0.49231  0.31742  1.0000
  O   O24       1.0  0.53337  0.47500  0.15426  1.0000
  Ti  Ti14      1.0  0.59095  0.66011  0.10279  1.0000
  O   O25       1.0  0.74221  0.65877  0.22369  1.0000
  O   O26       1.0  0.69576  0.85134  0.13279  1.0000
  Ti  Ti15      1.0  0.70048  0.97450  0.32368  1.0000
  O   O27       1.0  0.55777  0.81758  0.34593  1.0000
  O   O28       1.0  0.52292  0.85200  0.04807  1.0000
  Ti  Ti16      1.0  0.83669  0.18321  0.20266  1.0000
  O   O29       1.0  0.82704  0.09930  0.06001  1.0000
  O   O30       1.0  0.85567  0.14022  0.33460  1.0000
  O   O31       1.0  0.94981  0.02963  0.15468  1.0000
  O   O32       1.0  0.79120  0.56409  0.09163  1.0000
  O   O33       1.0  0.89910  0.50398  0.34548  1.0000
  O   O34       1.0  0.95965  0.35049  0.16469  1.0000
  Ti  Ti17      1.0  0.75135  0.34481  0.33826  1.0000
  Ti  Ti18      1.0  0.86138  0.83106  0.18930  1.0000
  O   O35       1.0  0.89672  0.85283  0.33724  1.0000
  O   O36       1.0  0.77435  0.98923  0.24367  1.0000
