data_image0
_chemical_formula_structural       OTi2O5TiOTiO2TiO3Ti2O3TiO3TiO2TiOTiO3TiO3TiOTiOTiO3TiO2Ti2O2
_chemical_formula_sum              "O36 Ti18"
_cell_length_a       8.37132
_cell_length_b       8.28796
_cell_length_c       23.4063
_cell_angle_alpha    90
_cell_angle_beta     90
_cell_angle_gamma    90

_space_group_name_H-M_alt    "P 1"
_space_group_IT_number       1

loop_
  _space_group_symop_operation_xyz
  'x, y, z'

loop_
  _atom_site_type_symbol
  _atom_site_label
  _atom_site_symmetry_multiplicity
  _atom_site_fract_x
  _atom_site_fract_y
  _atom_site_fract_z
  _atom_site_occupancy
  O   O1        1.0  0.11203  0.24796  0.16228  1.0000
  Ti  Ti1       1.0  0.18910  0.07505  0.11074  1.0000
  Ti  Ti2       1.0  0.10671  0.24419  0.24234  1.0000
  O   O2        1.0  0.05077  0.31351  0.32261  1.0000
  O   O3        1.0  0.24442  0.06863  0.26023  1.0000
  O   O4        1.0  0.20751  0.63359  0.33317  1.0000
  O   O5        1.0  0.04471  0.51172  0.08521  1.0000
  O   O6        1.0  0.23488  0.44482  0.25174  1.0000
  Ti  Ti3       1.0  0.01531  0.54948  0.29688  1.0000
  O   O7        1.0  0.05621  0.92297  0.15658  1.0000
  Ti  Ti4       1.0  0.06206  0.72194  0.11091  1.0000
  O   O8        1.0  0.20347  0.86281  0.06744  1.0000
  O   O9        1.0  0.04487  0.76167  0.25948  1.0000
  Ti  Ti5       1.0  0.22837  0.86237  0.30269  1.0000
  O   O10       1.0  0.08001  0.97353  0.34980  1.0000
  O   O11       1.0  0.32816  0.22825  0.07992  1.0000
  O   O12       1.0  0.40541  0.27744  0.34927  1.0000
  Ti  Ti6       1.0  0.38823  0.55884  0.20231  1.0000
  Ti  Ti7       1.0  0.37895  0.48714  0.32844  1.0000
  O   O13       1.0  0.48020  0.56925  0.06907  1.0000
  O   O14       1.0  0.25724  0.65462  0.14507  1.0000
  O   O15       1.0  0.37315  0.76162  0.24485  1.0000
  Ti  Ti8       1.0  0.39453  0.77189  0.09123  1.0000
  O   O16       1.0  0.44710  0.91266  0.33209  1.0000
  O   O17       1.0  0.37928  0.96000  0.14395  1.0000
  O   O18       1.0  0.64378  0.17882  0.05666  1.0000
  Ti  Ti9       1.0  0.54077  0.11916  0.32655  1.0000
  O   O19       1.0  0.55799  0.12139  0.24433  1.0000
  O   O20       1.0  0.72325  0.25754  0.31398  1.0000
  Ti  Ti10      1.0  0.68319  0.32320  0.23044  1.0000
  O   O21       1.0  0.52943  0.47965  0.26431  1.0000
  Ti  Ti11      1.0  0.51851  0.34472  0.08487  1.0000
  O   O22       1.0  0.50498  0.38777  0.16613  1.0000
  O   O23       1.0  0.73787  0.45153  0.09149  1.0000
  O   O24       1.0  0.51740  0.61936  0.36669  1.0000
  Ti  Ti12      1.0  0.65340  0.77271  0.33778  1.0000
  O   O25       1.0  0.59141  0.84902  0.06630  1.0000
  O   O26       1.0  0.68861  0.83789  0.25870  1.0000
  O   O27       1.0  0.54197  0.70279  0.16068  1.0000
  Ti  Ti13      1.0  0.52158  0.91657  0.20541  1.0000
  O   O28       1.0  0.71996  0.93997  0.15747  1.0000
  Ti  Ti14      1.0  0.70478  0.66838  0.10317  1.0000
  O   O29       1.0  0.72458  0.98983  0.35691  1.0000
  Ti  Ti15      1.0  0.90700  0.12688  0.33797  1.0000
  O   O30       1.0  0.96119  0.12860  0.07755  1.0000
  O   O31       1.0  0.92359  0.08160  0.25622  1.0000
  O   O32       1.0  0.78258  0.24058  0.16455  1.0000
  Ti  Ti16      1.0  0.76496  0.00753  0.07819  1.0000
  O   O33       1.0  0.90418  0.41588  0.23939  1.0000
  O   O34       1.0  0.83249  0.64106  0.33494  1.0000
  Ti  Ti17      1.0  0.92679  0.33347  0.11267  1.0000
  Ti  Ti18      1.0  0.88395  0.87823  0.21359  1.0000
  O   O35       1.0  0.87055  0.80045  0.06961  1.0000
  O   O36       1.0  0.86864  0.67760  0.16308  1.0000
