data_image0
_chemical_formula_structural       TiO7Ti2OTiO6TiO3TiOTiO4TiOTiOTiOTiO6Ti3O2TiOTi2O5TiO3TiO2Ti2O5TiOTiO3Ti2O2Ti2O6Ti2O3TiOTi2OTiOTiOTiO2TiO2
_chemical_formula_sum              "Ti36 O72"
_cell_length_a       10.4475
_cell_length_b       10.4475
_cell_length_c       26.2144
_cell_angle_alpha    90
_cell_angle_beta     90
_cell_angle_gamma    90

_space_group_name_H-M_alt    "P 1"
_space_group_IT_number       1

loop_
  _space_group_symop_operation_xyz
  'x, y, z'

loop_
  _atom_site_type_symbol
  _atom_site_label
  _atom_site_symmetry_multiplicity
  _atom_site_fract_x
  _atom_site_fract_y
  _atom_site_fract_z
  _atom_site_occupancy
  Ti  Ti1       1.0  0.18245  0.13755  0.18608  1.0000
  O   O1        1.0  0.13441  0.29654  0.14836  1.0000
  O   O2        1.0  0.10207  0.16711  0.39380  1.0000
  O   O3        1.0  0.02083  0.25580  0.30851  1.0000
  O   O4        1.0  0.23937  0.24970  0.23816  1.0000
  O   O5        1.0  0.13155  0.00459  0.13808  1.0000
  O   O6        1.0  0.00886  0.10639  0.21119  1.0000
  O   O7        1.0  0.13563  0.45850  0.07199  1.0000
  Ti  Ti2       1.0  0.12626  0.64421  0.08127  1.0000
  Ti  Ti3       1.0  0.13295  0.37373  0.27265  1.0000
  O   O8        1.0  0.07764  0.47838  0.33257  1.0000
  Ti  Ti4       1.0  0.22323  0.53603  0.38582  1.0000
  O   O9        1.0  0.11923  0.53547  0.15359  1.0000
  O   O10       1.0  0.22136  0.50748  0.24033  1.0000
  O   O11       1.0  0.16023  0.38159  0.41124  1.0000
  O   O12       1.0  0.18501  0.79452  0.05138  1.0000
  O   O13       1.0  0.13432  0.76379  0.14026  1.0000
  O   O14       1.0  0.04109  0.83679  0.22204  1.0000
  Ti  Ti5       1.0  0.14035  0.87353  0.28254  1.0000
  O   O15       1.0  0.22989  0.98059  0.23457  1.0000
  O   O16       1.0  0.24060  0.73448  0.24994  1.0000
  O   O17       1.0  0.07703  0.92390  0.41922  1.0000
  Ti  Ti6       1.0  0.22464  0.83137  0.41135  1.0000
  O   O18       1.0  0.10273  0.67220  0.38683  1.0000
  Ti  Ti7       1.0  0.11743  0.66714  0.20396  1.0000
  O   O19       1.0  0.02485  0.99995  0.31157  1.0000
  O   O20       1.0  0.37696  0.00931  0.07785  1.0000
  O   O21       1.0  0.35862  0.28248  0.10193  1.0000
  O   O22       1.0  0.37223  0.10002  0.36675  1.0000
  Ti  Ti8       1.0  0.26842  0.23367  0.39275  1.0000
  O   O23       1.0  0.35630  0.07877  0.16724  1.0000
  Ti  Ti9       1.0  0.46310  0.14247  0.11276  1.0000
  O   O24       1.0  0.42987  0.06778  0.27021  1.0000
  Ti  Ti10      1.0  0.40897  0.25117  0.27161  1.0000
  O   O25       1.0  0.40397  0.23129  0.44200  1.0000
  Ti  Ti11      1.0  0.49658  0.05542  0.42572  1.0000
  O   O26       1.0  0.27273  0.31466  0.32700  1.0000
  O   O27       1.0  0.49723  0.25640  0.20812  1.0000
  O   O28       1.0  0.31466  0.61110  0.10108  1.0000
  O   O29       1.0  0.32335  0.60221  0.33186  1.0000
  O   O30       1.0  0.45049  0.43406  0.27154  1.0000
  O   O31       1.0  0.40969  0.47332  0.16314  1.0000
  Ti  Ti12      1.0  0.46816  0.63784  0.37702  1.0000
  Ti  Ti13      1.0  0.36908  0.59768  0.26243  1.0000
  Ti  Ti14      1.0  0.26634  0.42285  0.12334  1.0000
  O   O32       1.0  0.40407  0.46259  0.40213  1.0000
  O   O33       1.0  0.48776  0.65694  0.21216  1.0000
  Ti  Ti15      1.0  0.47211  0.66107  0.13864  1.0000
  O   O34       1.0  0.44923  0.83329  0.27341  1.0000
  Ti  Ti16      1.0  0.42701  0.95416  0.32729  1.0000
  Ti  Ti17      1.0  0.40697  0.94343  0.21329  1.0000
  O   O35       1.0  0.37593  0.82632  0.15294  1.0000
  O   O36       1.0  0.25361  0.88241  0.34033  1.0000
  O   O37       1.0  0.35155  0.94640  0.43661  1.0000
  O   O38       1.0  0.31931  0.67855  0.41947  1.0000
  O   O39       1.0  0.49387  0.81541  0.36686  1.0000
  Ti  Ti18      1.0  0.25313  0.89711  0.10311  1.0000
  O   O40       1.0  0.61941  0.04960  0.12649  1.0000
  O   O41       1.0  0.60427  0.27674  0.11959  1.0000
  O   O42       1.0  0.55360  0.26417  0.31933  1.0000
  Ti  Ti19      1.0  0.70249  0.16718  0.34575  1.0000
  O   O43       1.0  0.59145  0.01940  0.35230  1.0000
  O   O44       1.0  0.61784  0.19979  0.41187  1.0000
  Ti  Ti20      1.0  0.57252  0.39365  0.17450  1.0000
  Ti  Ti21      1.0  0.63327  0.43631  0.30250  1.0000
  O   O45       1.0  0.63498  0.45016  0.37548  1.0000
  O   O46       1.0  0.55600  0.61759  0.30754  1.0000
  O   O47       1.0  0.62513  0.53880  0.13359  1.0000
  O   O48       1.0  0.67347  0.44723  0.23128  1.0000
  O   O49       1.0  0.66201  0.44115  0.46719  1.0000
  Ti  Ti22      1.0  0.53802  0.35603  0.42924  1.0000
  O   O50       1.0  0.61386  0.66499  0.41718  1.0000
  Ti  Ti23      1.0  0.61164  0.74605  0.25372  1.0000
  O   O51       1.0  0.58459  0.89121  0.20561  1.0000
  O   O52       1.0  0.63252  0.76315  0.12356  1.0000
  O   O53       1.0  0.71084  0.81657  0.30617  1.0000
  Ti  Ti24      1.0  0.71329  0.90993  0.15586  1.0000
  Ti  Ti25      1.0  0.68630  0.83546  0.38460  1.0000
  O   O54       1.0  0.74631  0.67274  0.21196  1.0000
  O   O55       1.0  0.62674  0.93807  0.43966  1.0000
  Ti  Ti26      1.0  0.88912  0.20981  0.25291  1.0000
  Ti  Ti27      1.0  0.98046  0.03713  0.38165  1.0000
  O   O56       1.0  0.79927  0.08397  0.29221  1.0000
  O   O57       1.0  0.86829  0.18849  0.38250  1.0000
  O   O58       1.0  0.77684  0.31136  0.30262  1.0000
  O   O59       1.0  0.85012  0.03137  0.13140  1.0000
  O   O60       1.0  0.77961  0.22682  0.19509  1.0000
  O   O61       1.0  0.87886  0.29519  0.09946  1.0000
  Ti  Ti28      1.0  0.75970  0.18529  0.12624  1.0000
  Ti  Ti29      1.0  0.99600  0.32247  0.37590  1.0000
  O   O62       1.0  0.94460  0.60090  0.08817  1.0000
  O   O63       1.0  0.96948  0.37008  0.23405  1.0000
  O   O64       1.0  0.86495  0.49731  0.16258  1.0000
  Ti  Ti30      1.0  0.78362  0.63986  0.12980  1.0000
  O   O65       1.0  0.80630  0.54951  0.30490  1.0000
  Ti  Ti31      1.0  0.95336  0.62398  0.34273  1.0000
  Ti  Ti32      1.0  0.84439  0.51369  0.23406  1.0000
  O   O66       1.0  0.90057  0.46610  0.39736  1.0000
  Ti  Ti33      1.0  0.99597  0.41403  0.12121  1.0000
  O   O67       1.0  0.99458  0.60230  0.24783  1.0000
  Ti  Ti34      1.0  0.75054  0.54692  0.42148  1.0000
  O   O68       1.0  0.82552  0.69366  0.38859  1.0000
  Ti  Ti35      1.0  0.86039  0.91238  0.29012  1.0000
  O   O69       1.0  0.82341  0.92968  0.21788  1.0000
  O   O70       1.0  0.86543  0.80085  0.14052  1.0000
  Ti  Ti36      1.0  0.97611  0.94021  0.16945  1.0000
  O   O71       1.0  0.83171  0.94306  0.36881  1.0000
  O   O72       1.0  0.98318  0.78202  0.31103  1.0000
