data_image0
_chemical_formula_structural       TiO2TiO2TiO2Ti2O3TiO5TiO2TiO11TiOTiOTiOTiO5Ti3OTiO3TiO2TiOTiO3Ti2O4Ti2O2TiOTiOTiO4Ti3O4Ti2O4Ti2OTiO3TiOTiO2
_chemical_formula_sum              "Ti36 O72"
_cell_length_a       10.4475
_cell_length_b       10.4475
_cell_length_c       26.2144
_cell_angle_alpha    90
_cell_angle_beta     90
_cell_angle_gamma    90

_space_group_name_H-M_alt    "P 1"
_space_group_IT_number       1

loop_
  _space_group_symop_operation_xyz
  'x, y, z'

loop_
  _atom_site_type_symbol
  _atom_site_label
  _atom_site_symmetry_multiplicity
  _atom_site_fract_x
  _atom_site_fract_y
  _atom_site_fract_z
  _atom_site_occupancy
  Ti  Ti1       1.0  0.21092  0.07669  0.28077  1.0000
  O   O1        1.0  0.20409  0.14091  0.15041  1.0000
  O   O2        1.0  0.07620  0.07244  0.23099  1.0000
  Ti  Ti2       1.0  0.02749  0.16421  0.16895  1.0000
  O   O3        1.0  0.19282  0.25585  0.29844  1.0000
  O   O4        1.0  0.07792  0.32390  0.19835  1.0000
  Ti  Ti3       1.0  0.09783  0.21009  0.43432  1.0000
  O   O5        1.0  0.17700  0.04522  0.42294  1.0000
  O   O6        1.0  0.24213  0.31302  0.43946  1.0000
  Ti  Ti4       1.0  0.10180  0.39801  0.26399  1.0000
  Ti  Ti5       1.0  0.06406  0.48091  0.15206  1.0000
  O   O7        1.0  0.03593  0.54486  0.22405  1.0000
  O   O8        1.0  0.06576  0.52439  0.32086  1.0000
  O   O9        1.0  0.12571  0.35127  0.10558  1.0000
  Ti  Ti6       1.0  0.18093  0.66101  0.35930  1.0000
  O   O10       1.0  0.08129  0.66091  0.12964  1.0000
  O   O11       1.0  0.20829  0.58044  0.42123  1.0000
  O   O12       1.0  0.15901  0.73142  0.28935  1.0000
  O   O13       1.0  0.20445  0.83573  0.38737  1.0000
  O   O14       1.0  0.16579  0.87676  0.14218  1.0000
  Ti  Ti7       1.0  0.04180  0.92702  0.38432  1.0000
  O   O15       1.0  0.07793  0.97873  0.31602  1.0000
  O   O16       1.0  0.39138  0.14610  0.09045  1.0000
  Ti  Ti8       1.0  0.29375  0.29017  0.11387  1.0000
  O   O17       1.0  0.46498  0.07209  0.17994  1.0000
  O   O18       1.0  0.38614  0.17546  0.26079  1.0000
  O   O19       1.0  0.33341  0.02274  0.33262  1.0000
  O   O20       1.0  0.47035  0.23502  0.34393  1.0000
  O   O21       1.0  0.43302  0.09133  0.43175  1.0000
  O   O22       1.0  0.39595  0.33026  0.17345  1.0000
  O   O23       1.0  0.41321  0.38740  0.07526  1.0000
  O   O24       1.0  0.36112  0.64500  0.08063  1.0000
  O   O25       1.0  0.46629  0.59750  0.42552  1.0000
  O   O26       1.0  0.27162  0.45438  0.25553  1.0000
  O   O27       1.0  0.32231  0.45005  0.35424  1.0000
  Ti  Ti9       1.0  0.38755  0.51879  0.20590  1.0000
  O   O28       1.0  0.49740  0.40135  0.25399  1.0000
  Ti  Ti10      1.0  0.36521  0.34006  0.30225  1.0000
  O   O29       1.0  0.25088  0.51567  0.15536  1.0000
  Ti  Ti11      1.0  0.33939  0.45839  0.42535  1.0000
  O   O30       1.0  0.49835  0.64636  0.25412  1.0000
  Ti  Ti12      1.0  0.30590  0.99400  0.16332  1.0000
  O   O31       1.0  0.47341  0.86148  0.38942  1.0000
  O   O32       1.0  0.31165  0.70118  0.20286  1.0000
  O   O33       1.0  0.28060  0.94450  0.23566  1.0000
  O   O34       1.0  0.36018  0.70136  0.33183  1.0000
  O   O35       1.0  0.39018  0.85796  0.12917  1.0000
  Ti  Ti13      1.0  0.33723  0.78271  0.26641  1.0000
  Ti  Ti14      1.0  0.33298  0.96263  0.40395  1.0000
  Ti  Ti15      1.0  0.26171  0.71130  0.13249  1.0000
  O   O36       1.0  0.49953  0.89982  0.27176  1.0000
  Ti  Ti16      1.0  0.55311  0.11742  0.06546  1.0000
  O   O37       1.0  0.67580  0.24109  0.06275  1.0000
  O   O38       1.0  0.62467  0.15753  0.26151  1.0000
  O   O39       1.0  0.62513  0.07030  0.36058  1.0000
  Ti  Ti17      1.0  0.51760  0.23139  0.20862  1.0000
  O   O40       1.0  0.66460  0.23299  0.16365  1.0000
  O   O41       1.0  0.65632  0.01184  0.11390  1.0000
  Ti  Ti18      1.0  0.50384  0.06609  0.30564  1.0000
  O   O42       1.0  0.72967  0.20067  0.43237  1.0000
  Ti  Ti19      1.0  0.55337  0.20389  0.40855  1.0000
  O   O43       1.0  0.51191  0.37171  0.42837  1.0000
  O   O44       1.0  0.67085  0.47631  0.10234  1.0000
  O   O45       1.0  0.58688  0.53054  0.34585  1.0000
  Ti  Ti20      1.0  0.64342  0.53511  0.27693  1.0000
  Ti  Ti21      1.0  0.69943  0.62997  0.14836  1.0000
  O   O46       1.0  0.72326  0.64203  0.22382  1.0000
  O   O47       1.0  0.51655  0.56192  0.15882  1.0000
  O   O48       1.0  0.73328  0.39328  0.25471  1.0000
  O   O49       1.0  0.71218  0.43472  0.48627  1.0000
  Ti  Ti22      1.0  0.63296  0.51659  0.42939  1.0000
  Ti  Ti23      1.0  0.50279  0.53761  0.08311  1.0000
  O   O50       1.0  0.60625  0.69204  0.08472  1.0000
  O   O51       1.0  0.52527  0.95224  0.04330  1.0000
  Ti  Ti24      1.0  0.52001  0.70110  0.36708  1.0000
  O   O52       1.0  0.65412  0.74917  0.31436  1.0000
  Ti  Ti25      1.0  0.55670  0.85621  0.10277  1.0000
  O   O53       1.0  0.60914  0.79823  0.16997  1.0000
  Ti  Ti26      1.0  0.64139  0.80737  0.24180  1.0000
  O   O54       1.0  0.68695  0.68559  0.40546  1.0000
  O   O55       1.0  0.88562  0.19852  0.12410  1.0000
  O   O56       1.0  0.86599  0.15935  0.21480  1.0000
  O   O57       1.0  0.84822  0.07225  0.30449  1.0000
  Ti  Ti27      1.0  0.80075  0.09325  0.37514  1.0000
  Ti  Ti28      1.0  0.79517  0.23388  0.27367  1.0000
  Ti  Ti29      1.0  0.76887  0.06791  0.16441  1.0000
  O   O58       1.0  0.77760  0.27264  0.34552  1.0000
  O   O59       1.0  0.97056  0.10264  0.39809  1.0000
  O   O60       1.0  0.97550  0.24072  0.48602  1.0000
  O   O61       1.0  0.95098  0.32904  0.29002  1.0000
  Ti  Ti30      1.0  0.77103  0.33196  0.11219  1.0000
  Ti  Ti31      1.0  0.90560  0.42719  0.34863  1.0000
  O   O62       1.0  0.88681  0.45349  0.14091  1.0000
  O   O63       1.0  0.83752  0.58180  0.31528  1.0000
  O   O64       1.0  0.98985  0.34150  0.40296  1.0000
  O   O65       1.0  0.79749  0.46509  0.40460  1.0000
  Ti  Ti32      1.0  0.84258  0.33416  0.45804  1.0000
  Ti  Ti33      1.0  0.81099  0.74532  0.35791  1.0000
  O   O66       1.0  0.83644  0.73901  0.13439  1.0000
  Ti  Ti34      1.0  0.93724  0.96294  0.25758  1.0000
  O   O67       1.0  0.88245  0.81295  0.29545  1.0000
  O   O68       1.0  0.84862  0.91238  0.38543  1.0000
  O   O69       1.0  0.93660  0.98762  0.15457  1.0000
  Ti  Ti35      1.0  0.98962  0.67441  0.27029  1.0000
  O   O70       1.0  0.76138  0.94218  0.22265  1.0000
  Ti  Ti36      1.0  0.99260  0.81609  0.14665  1.0000
  O   O71       1.0  0.99493  0.80843  0.21839  1.0000
  O   O72       1.0  0.99882  0.73322  0.37075  1.0000
