data_image0
_chemical_formula_structural       O2TiOTiO5TiO2Ti3O4TiOTiO5TiO2Ti3O4TiO2Ti3O7TiO2Ti3O7TiOTi2O6Ti3O2TiOTi2O6Ti2O2TiO2TiO2TiO3TiOTiO2
_chemical_formula_sum              "O72 Ti36"
_cell_length_a       10.4475
_cell_length_b       10.4475
_cell_length_c       26.2144
_cell_angle_alpha    90
_cell_angle_beta     90
_cell_angle_gamma    90

_space_group_name_H-M_alt    "P 1"
_space_group_IT_number       1

loop_
  _space_group_symop_operation_xyz
  'x, y, z'

loop_
  _atom_site_type_symbol
  _atom_site_label
  _atom_site_symmetry_multiplicity
  _atom_site_fract_x
  _atom_site_fract_y
  _atom_site_fract_z
  _atom_site_occupancy
  O   O1        1.0  0.06741  0.05326  0.08040  1.0000
  O   O2        1.0  0.12083  0.05679  0.18167  1.0000
  Ti  Ti1       1.0  0.08281  0.04884  0.25789  1.0000
  O   O3        1.0  0.15701  0.06372  0.32641  1.0000
  Ti  Ti2       1.0  0.16257  0.05196  0.39964  1.0000
  O   O4        1.0  0.19214  0.22040  0.42191  1.0000
  O   O5        1.0  0.00318  0.21203  0.26237  1.0000
  O   O6        1.0  0.20132  0.36289  0.25608  1.0000
  O   O7        1.0  0.16680  0.40883  0.34985  1.0000
  O   O8        1.0  0.13673  0.38355  0.15609  1.0000
  Ti  Ti3       1.0  0.03870  0.38371  0.28673  1.0000
  O   O9        1.0  0.01198  0.55725  0.26680  1.0000
  O   O10       1.0  0.19873  0.56944  0.44150  1.0000
  Ti  Ti4       1.0  0.15374  0.39836  0.42384  1.0000
  Ti  Ti5       1.0  0.12605  0.88052  0.06788  1.0000
  Ti  Ti6       1.0  0.12607  0.70843  0.27609  1.0000
  O   O11       1.0  0.14169  0.70295  0.20091  1.0000
  O   O12       1.0  0.06959  0.70483  0.34704  1.0000
  O   O13       1.0  0.04677  0.87009  0.26167  1.0000
  O   O14       1.0  0.14000  0.69973  0.10738  1.0000
  Ti  Ti7       1.0  0.15957  0.72721  0.41036  1.0000
  O   O15       1.0  0.22724  0.89038  0.42403  1.0000
  Ti  Ti8       1.0  0.31279  0.02392  0.17404  1.0000
  O   O16       1.0  0.36349  0.21313  0.18163  1.0000
  O   O17       1.0  0.46337  0.14217  0.29278  1.0000
  O   O18       1.0  0.34404  0.06324  0.37988  1.0000
  O   O19       1.0  0.40037  0.30183  0.35767  1.0000
  O   O20       1.0  0.26974  0.04013  0.24630  1.0000
  Ti  Ti9       1.0  0.33679  0.01024  0.31058  1.0000
  O   O21       1.0  0.46052  0.00446  0.11376  1.0000
  O   O22       1.0  0.36312  0.07621  0.47286  1.0000
  Ti  Ti10      1.0  0.38449  0.21874  0.42708  1.0000
  Ti  Ti11      1.0  0.28775  0.37520  0.19220  1.0000
  Ti  Ti12      1.0  0.32182  0.41505  0.31004  1.0000
  O   O23       1.0  0.43102  0.37402  0.24966  1.0000
  O   O24       1.0  0.46488  0.52202  0.32165  1.0000
  O   O25       1.0  0.36129  0.54157  0.18242  1.0000
  O   O26       1.0  0.26566  0.59124  0.28751  1.0000
  Ti  Ti13      1.0  0.39029  0.57750  0.44347  1.0000
  O   O27       1.0  0.34185  0.39428  0.44617  1.0000
  O   O28       1.0  0.28599  0.86323  0.03211  1.0000
  Ti  Ti14      1.0  0.43340  0.86759  0.07028  1.0000
  Ti  Ti15      1.0  0.28842  0.71041  0.15700  1.0000
  Ti  Ti16      1.0  0.40456  0.70384  0.31573  1.0000
  O   O29       1.0  0.44442  0.72840  0.11614  1.0000
  O   O30       1.0  0.47303  0.89323  0.30006  1.0000
  O   O31       1.0  0.36567  0.84331  0.19894  1.0000
  O   O32       1.0  0.26113  0.82671  0.30804  1.0000
  O   O33       1.0  0.33207  0.67820  0.38239  1.0000
  O   O34       1.0  0.49123  0.68725  0.24887  1.0000
  O   O35       1.0  0.25507  0.89721  0.12259  1.0000
  Ti  Ti17      1.0  0.39957  0.91073  0.45122  1.0000
  O   O36       1.0  0.38816  0.74062  0.47433  1.0000
  O   O37       1.0  0.60862  0.20104  0.09972  1.0000
  Ti  Ti18      1.0  0.58271  0.21643  0.34383  1.0000
  Ti  Ti19      1.0  0.52682  0.21289  0.22704  1.0000
  Ti  Ti20      1.0  0.62720  0.04672  0.13842  1.0000
  O   O38       1.0  0.68911  0.15994  0.18963  1.0000
  O   O39       1.0  0.67126  0.24022  0.27448  1.0000
  O   O40       1.0  0.67541  0.05982  0.34591  1.0000
  O   O41       1.0  0.55375  0.18740  0.41462  1.0000
  O   O42       1.0  0.50413  0.03444  0.20531  1.0000
  O   O43       1.0  0.60219  0.53443  0.09509  1.0000
  O   O44       1.0  0.57435  0.37402  0.18037  1.0000
  Ti  Ti21      1.0  0.64466  0.36932  0.11299  1.0000
  O   O45       1.0  0.66793  0.36701  0.36278  1.0000
  Ti  Ti22      1.0  0.63182  0.54087  0.35126  1.0000
  Ti  Ti23      1.0  0.54088  0.51918  0.22775  1.0000
  O   O46       1.0  0.68313  0.52661  0.27676  1.0000
  O   O47       1.0  0.67028  0.60420  0.18805  1.0000
  O   O48       1.0  0.54866  0.54830  0.41648  1.0000
  O   O49       1.0  0.62589  0.84071  0.06594  1.0000
  O   O50       1.0  0.68577  0.88824  0.26801  1.0000
  O   O51       1.0  0.58681  0.71322  0.33973  1.0000
  Ti  Ti24      1.0  0.63488  0.69376  0.12545  1.0000
  Ti  Ti25      1.0  0.53357  0.86112  0.22870  1.0000
  Ti  Ti26      1.0  0.62526  0.88702  0.34336  1.0000
  O   O52       1.0  0.62613  0.85706  0.16410  1.0000
  O   O53       1.0  0.52149  0.89384  0.40176  1.0000
  Ti  Ti27      1.0  0.84364  0.04133  0.37588  1.0000
  O   O54       1.0  0.92521  0.21503  0.16522  1.0000
  Ti  Ti28      1.0  0.82882  0.20473  0.23375  1.0000
  Ti  Ti29      1.0  0.96745  0.05204  0.14173  1.0000
  O   O55       1.0  0.89256  0.02077  0.21378  1.0000
  O   O56       1.0  0.83746  0.20250  0.40263  1.0000
  O   O57       1.0  0.89890  0.01506  0.30712  1.0000
  O   O58       1.0  0.79336  0.00889  0.10957  1.0000
  O   O59       1.0  0.81845  0.38412  0.10805  1.0000
  O   O60       1.0  0.86801  0.38672  0.22741  1.0000
  Ti  Ti30      1.0  0.95978  0.38323  0.15011  1.0000
  Ti  Ti31      1.0  0.83493  0.57641  0.23755  1.0000
  O   O61       1.0  0.79808  0.56283  0.38185  1.0000
  O   O62       1.0  0.93798  0.54951  0.16963  1.0000
  Ti  Ti32      1.0  0.83188  0.37928  0.39659  1.0000
  O   O63       1.0  0.91281  0.37431  0.33345  1.0000
  O   O64       1.0  0.98152  0.40842  0.43319  1.0000
  Ti  Ti33      1.0  0.81662  0.86462  0.06750  1.0000
  O   O65       1.0  0.96829  0.84679  0.03317  1.0000
  O   O66       1.0  0.81229  0.71849  0.10810  1.0000
  Ti  Ti34      1.0  0.89176  0.71330  0.37261  1.0000
  O   O67       1.0  0.85130  0.72006  0.30053  1.0000
  O   O68       1.0  0.78947  0.86342  0.37475  1.0000
  O   O69       1.0  0.87633  0.74843  0.20895  1.0000
  Ti  Ti35      1.0  0.86260  0.87690  0.25950  1.0000
  O   O70       1.0  0.98606  0.87524  0.12681  1.0000
  Ti  Ti36      1.0  0.98869  0.71094  0.15244  1.0000
  O   O71       1.0  0.98973  0.72975  0.43139  1.0000
  O   O72       1.0  0.99857  0.99843  0.40431  1.0000
