data_image0
_chemical_formula_structural       TiOTiO3TiOTi2O3TiO2TiO3Ti2O5TiOTiOTiO4Ti2O3Ti2O3TiOTiO4TiO3Ti3O3TiO3TiO4Ti3O4TiOTi2O5TiO3TiO4Ti3O5TiO2
_chemical_formula_sum              "Ti36 O72"
_cell_length_a       10.4475
_cell_length_b       10.4475
_cell_length_c       26.2144
_cell_angle_alpha    90
_cell_angle_beta     90
_cell_angle_gamma    90

_space_group_name_H-M_alt    "P 1"
_space_group_IT_number       1

loop_
  _space_group_symop_operation_xyz
  'x, y, z'

loop_
  _atom_site_type_symbol
  _atom_site_label
  _atom_site_symmetry_multiplicity
  _atom_site_fract_x
  _atom_site_fract_y
  _atom_site_fract_z
  _atom_site_occupancy
  Ti  Ti1       1.0  0.14027  0.18756  0.27308  1.0000
  O   O1        1.0  0.22297  0.17265  0.33905  1.0000
  Ti  Ti2       1.0  0.19005  0.13130  0.16003  1.0000
  O   O2        1.0  0.05724  0.18433  0.20801  1.0000
  O   O3        1.0  0.06148  0.08141  0.11424  1.0000
  O   O4        1.0  0.22473  0.30805  0.13219  1.0000
  Ti  Ti3       1.0  0.13658  0.01350  0.35652  1.0000
  O   O5        1.0  0.06291  0.23945  0.40519  1.0000
  Ti  Ti4       1.0  0.12734  0.46078  0.14571  1.0000
  Ti  Ti5       1.0  0.18376  0.36474  0.38407  1.0000
  O   O6        1.0  0.12156  0.46121  0.21517  1.0000
  O   O7        1.0  0.05786  0.49432  0.38496  1.0000
  O   O8        1.0  0.09466  0.64401  0.29756  1.0000
  Ti  Ti6       1.0  0.14838  0.65360  0.36911  1.0000
  O   O9        1.0  0.23360  0.60360  0.12659  1.0000
  O   O10       1.0  0.09729  0.35164  0.30394  1.0000
  Ti  Ti7       1.0  0.01081  0.49369  0.26922  1.0000
  O   O11       1.0  0.24940  0.46596  0.44301  1.0000
  O   O12       1.0  0.13518  0.83307  0.34854  1.0000
  O   O13       1.0  0.05261  0.81212  0.20811  1.0000
  Ti  Ti8       1.0  0.18683  0.78227  0.15294  1.0000
  Ti  Ti9       1.0  0.15720  0.80947  0.27011  1.0000
  O   O14       1.0  0.04769  0.82810  0.11138  1.0000
  O   O15       1.0  0.16587  0.99315  0.28113  1.0000
  O   O16       1.0  0.24135  0.95450  0.17288  1.0000
  O   O17       1.0  0.28572  0.17319  0.22392  1.0000
  O   O18       1.0  0.41330  0.28991  0.29698  1.0000
  Ti  Ti10      1.0  0.46494  0.19733  0.23862  1.0000
  O   O19       1.0  0.36168  0.11193  0.12644  1.0000
  Ti  Ti11      1.0  0.39868  0.16005  0.35499  1.0000
  O   O20       1.0  0.44700  0.06248  0.29699  1.0000
  Ti  Ti12      1.0  0.41100  0.28478  0.11257  1.0000
  O   O21       1.0  0.36894  0.32603  0.38362  1.0000
  O   O22       1.0  0.46173  0.32351  0.18092  1.0000
  O   O23       1.0  0.41428  0.45464  0.09250  1.0000
  O   O24       1.0  0.27333  0.51959  0.34817  1.0000
  Ti  Ti13      1.0  0.43890  0.45150  0.32925  1.0000
  Ti  Ti14      1.0  0.41566  0.62631  0.10937  1.0000
  O   O25       1.0  0.44752  0.51527  0.26165  1.0000
  O   O26       1.0  0.49539  0.58710  0.37373  1.0000
  O   O27       1.0  0.49054  0.60402  0.17667  1.0000
  Ti  Ti15      1.0  0.40414  0.54946  0.43861  1.0000
  Ti  Ti16      1.0  0.42881  0.95501  0.15616  1.0000
  O   O28       1.0  0.46284  0.86064  0.21782  1.0000
  O   O29       1.0  0.36186  0.80020  0.12393  1.0000
  O   O30       1.0  0.34426  0.79269  0.29518  1.0000
  Ti  Ti17      1.0  0.42396  0.68607  0.23906  1.0000
  O   O31       1.0  0.25829  0.71518  0.21486  1.0000
  Ti  Ti18      1.0  0.38928  0.85639  0.42181  1.0000
  O   O32       1.0  0.49117  0.71335  0.44949  1.0000
  O   O33       1.0  0.27791  0.71321  0.41519  1.0000
  O   O34       1.0  0.30966  0.99671  0.38703  1.0000
  O   O35       1.0  0.55921  0.23139  0.07865  1.0000
  Ti  Ti19      1.0  0.73486  0.22612  0.07567  1.0000
  O   O36       1.0  0.55570  0.15816  0.39006  1.0000
  O   O37       1.0  0.54233  0.07526  0.19535  1.0000
  O   O38       1.0  0.62348  0.29650  0.24834  1.0000
  Ti  Ti20      1.0  0.64669  0.31831  0.41386  1.0000
  Ti  Ti21      1.0  0.64943  0.01341  0.42049  1.0000
  Ti  Ti22      1.0  0.57217  0.45276  0.20770  1.0000
  O   O39       1.0  0.61411  0.38777  0.34603  1.0000
  O   O40       1.0  0.68640  0.52484  0.25793  1.0000
  O   O41       1.0  0.71226  0.43260  0.16388  1.0000
  Ti  Ti23      1.0  0.74659  0.37328  0.29381  1.0000
  O   O42       1.0  0.53181  0.42302  0.44888  1.0000
  O   O43       1.0  0.73252  0.57645  0.42170  1.0000
  O   O44       1.0  0.55425  0.69357  0.07403  1.0000
  Ti  Ti24      1.0  0.69043  0.79738  0.08914  1.0000
  O   O45       1.0  0.57578  0.72955  0.27928  1.0000
  O   O46       1.0  0.60064  0.91139  0.13217  1.0000
  O   O47       1.0  0.52823  0.86110  0.36872  1.0000
  O   O48       1.0  0.66559  0.97177  0.27379  1.0000
  Ti  Ti25      1.0  0.62577  0.70636  0.39839  1.0000
  Ti  Ti26      1.0  0.70717  0.98513  0.19045  1.0000
  Ti  Ti27      1.0  0.50561  0.89406  0.29336  1.0000
  O   O49       1.0  0.73112  0.84667  0.42588  1.0000
  O   O50       1.0  0.50009  0.97004  0.45419  1.0000
  O   O51       1.0  0.84574  0.10045  0.05427  1.0000
  O   O52       1.0  0.79051  0.21605  0.32530  1.0000
  Ti  Ti28      1.0  0.82540  0.04527  0.29563  1.0000
  O   O53       1.0  0.83048  0.09206  0.22690  1.0000
  Ti  Ti29      1.0  0.89967  0.17986  0.38914  1.0000
  Ti  Ti30      1.0  0.89042  0.23948  0.18896  1.0000
  O   O54       1.0  0.77303  0.00778  0.36479  1.0000
  O   O55       1.0  0.76782  0.17272  0.14319  1.0000
  O   O56       1.0  0.99364  0.11384  0.31986  1.0000
  O   O57       1.0  0.75318  0.15953  0.43675  1.0000
  O   O58       1.0  0.79400  0.39210  0.06897  1.0000
  Ti  Ti31      1.0  0.83898  0.49965  0.12211  1.0000
  O   O59       1.0  0.96095  0.36563  0.14329  1.0000
  O   O60       1.0  0.86776  0.50223  0.32072  1.0000
  O   O61       1.0  0.90107  0.62539  0.23372  1.0000
  Ti  Ti32      1.0  0.88527  0.52984  0.39275  1.0000
  O   O62       1.0  0.88537  0.35494  0.24504  1.0000
  O   O63       1.0  0.82744  0.35693  0.40088  1.0000
  O   O64       1.0  0.99246  0.59450  0.14159  1.0000
  O   O65       1.0  0.82794  0.84975  0.05162  1.0000
  Ti  Ti33      1.0  0.94373  0.96700  0.08386  1.0000
  Ti  Ti34      1.0  0.90733  0.75036  0.17379  1.0000
  Ti  Ti35      1.0  0.87846  0.84960  0.37764  1.0000
  O   O66       1.0  0.83898  0.91826  0.14256  1.0000
  O   O67       1.0  0.90476  0.87952  0.30508  1.0000
  O   O68       1.0  0.96646  0.69935  0.39509  1.0000
  O   O69       1.0  0.77898  0.67293  0.12775  1.0000
  O   O70       1.0  0.76068  0.80855  0.21546  1.0000
  Ti  Ti36      1.0  0.75698  0.69215  0.27279  1.0000
  O   O71       1.0  0.98748  0.99283  0.39916  1.0000
  O   O72       1.0  0.75516  0.72336  0.34513  1.0000
