data_image0
_chemical_formula_structural       OTiOTiO2TiO3Ti3O2TiO7Ti2OTiO3TiOTiOTiO2Ti2O3TiO2Ti2O6TiO2Ti2O5TiO3TiOTiO8Ti3O2TiO3TiO3TiO2Ti3O2TiOTiO3Ti3O4Ti2O3TiOTiO2TiO2TiOTiO4TiOTiO5TiO2TiOTiO3Ti2O4TiO5TiOTi2OTiO8TiO2Ti3O2TiO4Ti
_chemical_formula_sum              "O126 Ti63"
_cell_length_a       12.6444
_cell_length_b       12.6444
_cell_length_c       28.3467
_cell_angle_alpha    90
_cell_angle_beta     90
_cell_angle_gamma    90

_space_group_name_H-M_alt    "P 1"
_space_group_IT_number       1

loop_
  _space_group_symop_operation_xyz
  'x, y, z'

loop_
  _atom_site_type_symbol
  _atom_site_label
  _atom_site_symmetry_multiplicity
  _atom_site_fract_x
  _atom_site_fract_y
  _atom_site_fract_z
  _atom_site_occupancy
  O   O1        1.0  0.02370  0.13848  0.04921  1.0000
  Ti  Ti1       1.0  0.12991  0.24556  0.06038  1.0000
  O   O2        1.0  0.21258  0.11090  0.07339  1.0000
  Ti  Ti2       1.0  0.08090  0.05290  0.10152  1.0000
  O   O3        1.0  0.11624  0.10620  0.24157  1.0000
  O   O4        1.0  0.09097  0.18847  0.12907  1.0000
  Ti  Ti3       1.0  0.08973  0.19320  0.30008  1.0000
  O   O5        1.0  0.12797  0.05317  0.32898  1.0000
  O   O6        1.0  0.18495  0.28628  0.26336  1.0000
  O   O7        1.0  0.23096  0.20755  0.33861  1.0000
  Ti  Ti4       1.0  0.24116  0.12941  0.20768  1.0000
  Ti  Ti5       1.0  0.23622  0.08917  0.38513  1.0000
  Ti  Ti6       1.0  0.01611  0.00523  0.21743  1.0000
  O   O8        1.0  0.11188  0.10864  0.42020  1.0000
  O   O9        1.0  0.24586  0.33211  0.08331  1.0000
  Ti  Ti7       1.0  0.22679  0.45367  0.04006  1.0000
  O   O10       1.0  0.22411  0.57460  0.00315  1.0000
  O   O11       1.0  0.15282  0.34335  0.01127  1.0000
  O   O12       1.0  0.02402  0.33752  0.08655  1.0000
  O   O13       1.0  0.12565  0.51380  0.08441  1.0000
  O   O14       1.0  0.13871  0.64439  0.18114  1.0000
  O   O15       1.0  0.17934  0.49835  0.25776  1.0000
  O   O16       1.0  0.04680  0.36582  0.19044  1.0000
  Ti  Ti8       1.0  0.19673  0.38661  0.21267  1.0000
  Ti  Ti9       1.0  0.22068  0.58881  0.12982  1.0000
  O   O17       1.0  0.17979  0.56281  0.33904  1.0000
  Ti  Ti10      1.0  0.06788  0.56226  0.29209  1.0000
  O   O18       1.0  0.10994  0.34314  0.37565  1.0000
  O   O19       1.0  0.00499  0.51046  0.39072  1.0000
  O   O20       1.0  0.23223  0.46707  0.42526  1.0000
  Ti  Ti11      1.0  0.14630  0.57396  0.40390  1.0000
  O   O21       1.0  0.14083  0.80152  -0.00273  1.0000
  Ti  Ti12      1.0  0.02040  0.86501  0.01945  1.0000
  O   O22       1.0  0.09370  0.91781  0.07353  1.0000
  Ti  Ti13      1.0  0.23565  0.71062  0.02475  1.0000
  O   O23       1.0  0.11836  0.69560  0.26579  1.0000
  O   O24       1.0  0.19771  0.71755  0.09201  1.0000
  Ti  Ti14      1.0  0.19563  0.93655  0.29839  1.0000
  Ti  Ti15      1.0  0.15426  0.84308  0.12709  1.0000
  O   O25       1.0  0.11649  0.84012  0.34289  1.0000
  O   O26       1.0  0.07524  0.90554  0.25978  1.0000
  O   O27       1.0  0.01851  0.78177  0.14461  1.0000
  Ti  Ti16      1.0  0.23920  0.70934  0.22577  1.0000
  O   O28       1.0  0.23748  0.83030  0.18365  1.0000
  O   O29       1.0  0.10412  0.98080  0.16055  1.0000
  Ti  Ti17      1.0  0.01566  0.79025  0.29677  1.0000
  Ti  Ti18      1.0  0.13592  0.81684  0.40985  1.0000
  O   O30       1.0  0.05103  0.91265  0.44149  1.0000
  O   O31       1.0  0.05659  0.68798  0.41770  1.0000
  O   O32       1.0  0.24827  0.92165  0.40377  1.0000
  O   O33       1.0  0.24635  0.69773  0.41631  1.0000
  O   O34       1.0  0.30774  0.04459  0.16230  1.0000
  O   O35       1.0  0.34378  0.16199  0.25298  1.0000
  Ti  Ti19      1.0  0.42245  0.05634  0.28486  1.0000
  O   O36       1.0  0.40519  0.18964  0.11849  1.0000
  O   O37       1.0  0.42347  0.17456  0.33506  1.0000
  Ti  Ti20      1.0  0.34018  0.05969  0.09740  1.0000
  Ti  Ti21      1.0  0.34154  0.28013  0.29220  1.0000
  O   O38       1.0  0.48397  0.29596  0.26932  1.0000
  O   O39       1.0  0.25733  0.26353  0.17970  1.0000
  O   O40       1.0  0.46743  0.32740  0.17615  1.0000
  O   O41       1.0  0.39938  0.05651  0.40750  1.0000
  O   O42       1.0  0.30502  0.21744  0.41775  1.0000
  Ti  Ti22      1.0  0.45506  0.19697  0.40126  1.0000
  O   O43       1.0  0.47335  0.00073  0.22277  1.0000
  O   O44       1.0  0.31825  0.55099  0.07934  1.0000
  O   O45       1.0  0.44027  0.39725  0.08946  1.0000
  Ti  Ti23      1.0  0.46586  0.54352  0.09228  1.0000
  O   O46       1.0  0.30123  0.38966  0.33310  1.0000
  Ti  Ti24      1.0  0.31318  0.51960  0.30259  1.0000
  O   O47       1.0  0.47105  0.47896  0.29937  1.0000
  O   O48       1.0  0.34079  0.40862  0.24327  1.0000
  O   O49       1.0  0.38103  0.57039  0.36288  1.0000
  O   O50       1.0  0.34068  0.63948  0.26703  1.0000
  O   O51       1.0  0.47334  0.52842  0.15877  1.0000
  O   O52       1.0  0.32524  0.65269  0.17295  1.0000
  O   O53       1.0  0.25278  0.45390  0.15775  1.0000
  O   O54       1.0  0.44369  0.34703  0.39109  1.0000
  Ti  Ti25      1.0  0.25196  0.34143  0.39209  1.0000
  Ti  Ti26      1.0  0.34721  0.33383  0.13311  1.0000
  Ti  Ti27      1.0  0.49990  0.42610  0.23043  1.0000
  O   O55       1.0  0.36625  0.76981  0.03363  1.0000
  O   O56       1.0  0.45144  0.99625  0.06492  1.0000
  Ti  Ti28      1.0  0.43635  0.83738  0.08198  1.0000
  O   O57       1.0  0.27364  0.81625  0.27761  1.0000
  O   O58       1.0  0.28827  0.90878  0.09938  1.0000
  O   O59       1.0  0.38742  0.77933  0.35561  1.0000
  Ti  Ti29      1.0  0.41481  0.76882  0.28938  1.0000
  O   O60       1.0  0.47175  0.91193  0.29972  1.0000
  O   O61       1.0  0.45352  0.88095  0.14493  1.0000
  O   O62       1.0  0.42350  0.78557  0.22108  1.0000
  Ti  Ti30      1.0  0.36284  0.91695  0.19466  1.0000
  O   O63       1.0  0.47098  0.69651  0.10996  1.0000
  O   O64       1.0  0.27944  0.99009  0.24442  1.0000
  Ti  Ti31      1.0  0.47706  0.67100  0.18133  1.0000
  Ti  Ti32      1.0  0.39661  0.68163  0.40876  1.0000
  Ti  Ti33      1.0  0.39676  0.91735  0.38448  1.0000
  O   O65       1.0  0.45447  0.81911  0.43274  1.0000
  O   O66       1.0  0.31699  0.99955  0.33220  1.0000
  Ti  Ti34      1.0  0.72294  0.25548  0.07087  1.0000
  O   O67       1.0  0.59731  0.17424  0.07372  1.0000
  Ti  Ti35      1.0  0.59710  0.02458  0.07689  1.0000
  O   O68       1.0  0.57391  0.08341  0.29234  1.0000
  O   O69       1.0  0.56788  0.06251  0.14120  1.0000
  O   O70       1.0  0.59256  0.16836  0.21203  1.0000
  Ti  Ti36      1.0  0.54429  0.21304  0.14815  1.0000
  Ti  Ti37      1.0  0.61838  0.23497  0.27352  1.0000
  Ti  Ti38      1.0  0.61779  0.01615  0.20303  1.0000
  O   O71       1.0  0.67221  0.28823  0.13547  1.0000
  O   O72       1.0  0.62812  0.30411  0.33343  1.0000
  O   O73       1.0  0.74533  0.03175  0.08713  1.0000
  O   O74       1.0  0.74805  0.00949  0.33096  1.0000
  Ti  Ti39      1.0  0.69767  0.30744  0.39046  1.0000
  Ti  Ti40      1.0  0.71493  0.08349  0.43703  1.0000
  O   O75       1.0  0.60154  0.20015  0.42099  1.0000
  O   O76       1.0  0.60691  0.00539  0.46712  1.0000
  O   O77       1.0  0.58515  0.55800  0.05725  1.0000
  Ti  Ti41      1.0  0.72483  0.53830  0.07270  1.0000
  O   O78       1.0  0.73241  0.39610  0.05959  1.0000
  Ti  Ti42      1.0  0.50530  0.47407  0.36636  1.0000
  O   O79       1.0  0.58399  0.55970  0.22614  1.0000
  O   O80       1.0  0.60469  0.58980  0.35816  1.0000
  Ti  Ti43      1.0  0.71703  0.60858  0.20054  1.0000
  O   O81       1.0  0.70258  0.51771  0.14273  1.0000
  O   O82       1.0  0.64552  0.35982  0.22572  1.0000
  Ti  Ti44      1.0  0.74267  0.38876  0.17267  1.0000
  O   O83       1.0  0.50266  0.58842  0.43116  1.0000
  Ti  Ti45      1.0  0.65916  0.58826  0.42291  1.0000
  O   O84       1.0  0.63129  0.43602  0.40864  1.0000
  O   O85       1.0  0.59302  0.87060  0.07845  1.0000
  O   O86       1.0  0.62178  0.71019  0.17038  1.0000
  O   O87       1.0  0.55040  0.72246  0.29207  1.0000
  Ti  Ti46      1.0  0.61902  0.94169  0.31433  1.0000
  O   O88       1.0  0.55130  0.93670  0.37690  1.0000
  Ti  Ti47      1.0  0.67642  0.79429  0.12115  1.0000
  O   O89       1.0  0.68763  0.91013  0.16415  1.0000
  O   O90       1.0  0.69874  0.81837  0.33586  1.0000
  O   O91       1.0  0.68350  0.92364  0.25236  1.0000
  O   O92       1.0  0.74103  0.68300  0.08904  1.0000
  O   O93       1.0  0.74051  0.70425  0.25324  1.0000
  Ti  Ti48      1.0  0.67922  0.67383  0.31388  1.0000
  O   O94       1.0  0.73634  0.93907  0.41492  1.0000
  O   O95       1.0  0.64725  0.73543  0.43260  1.0000
  Ti  Ti49      1.0  0.60228  0.87373  0.43558  1.0000
  O   O96       1.0  0.77813  0.17399  0.02201  1.0000
  Ti  Ti50      1.0  0.87709  0.08765  0.05009  1.0000
  O   O97       1.0  0.95372  0.12876  0.18489  1.0000
  O   O98       1.0  0.76593  0.19413  0.28273  1.0000
  O   O99       1.0  0.92187  0.06904  0.27226  1.0000
  Ti  Ti51      1.0  0.85294  0.11920  0.33246  1.0000
  Ti  Ti52      1.0  0.85399  0.16658  0.23102  1.0000
  O   O100      1.0  0.96748  0.21778  0.34371  1.0000
  O   O101      1.0  0.85508  0.20850  0.10181  1.0000
  O   O102      1.0  0.93598  0.02302  0.10744  1.0000
  O   O103      1.0  0.84664  0.29621  0.19943  1.0000
  Ti  Ti53      1.0  0.96339  0.26706  0.14434  1.0000
  O   O104      1.0  0.97022  0.26076  0.26049  1.0000
  O   O105      1.0  0.91547  0.01445  0.37524  1.0000
  O   O106      1.0  0.76183  0.07974  0.19272  1.0000
  O   O107      1.0  0.85650  0.08535  0.45962  1.0000
  O   O108      1.0  0.77040  0.17040  0.38569  1.0000
  Ti  Ti54      1.0  0.98524  0.04123  0.43308  1.0000
  O   O109      1.0  0.87193  0.55387  0.06281  1.0000
  Ti  Ti55      1.0  0.97804  0.47717  0.09214  1.0000
  Ti  Ti56      1.0  0.93582  0.40576  0.23687  1.0000
  O   O110      1.0  0.87885  0.40543  0.13425  1.0000
  Ti  Ti57      1.0  0.96962  0.37196  0.36405  1.0000
  O   O111      1.0  0.80567  0.48650  0.21806  1.0000
  O   O112      1.0  0.79919  0.62157  0.34347  1.0000
  O   O113      1.0  0.97447  0.59424  0.13261  1.0000
  O   O114      1.0  0.99074  0.54832  0.23273  1.0000
  O   O115      1.0  0.98357  0.43608  0.30269  1.0000
  O   O116      1.0  0.99412  0.66108  0.32986  1.0000
  O   O117      1.0  0.80482  0.58631  0.43207  1.0000
  O   O118      1.0  0.83117  0.36388  0.38240  1.0000
  Ti  Ti58      1.0  0.91073  0.63762  0.38974  1.0000
  O   O119      1.0  0.92208  0.97025  0.01516  1.0000
  O   O120      1.0  0.96419  0.75148  0.04988  1.0000
  Ti  Ti59      1.0  0.89327  0.71158  0.10354  1.0000
  Ti  Ti60      1.0  0.81995  0.98161  0.14414  1.0000
  Ti  Ti61      1.0  0.81086  0.83700  0.24324  1.0000
  O   O121      1.0  0.88250  0.86228  0.30306  1.0000
  O   O122      1.0  0.82241  0.84565  0.11317  1.0000
  Ti  Ti62      1.0  0.82106  0.89367  0.36340  1.0000
  O   O123      1.0  0.88786  0.93045  0.20159  1.0000
  O   O124      1.0  0.94007  0.75330  0.23970  1.0000
  O   O125      1.0  0.83172  0.68845  0.17100  1.0000
  O   O126      1.0  0.89161  0.78456  0.39004  1.0000
  Ti  Ti63      1.0  0.98891  0.66675  0.19066  1.0000
