data_image0
_chemical_formula_structural       TiO3TiO3Ti2OTiO5TiO4Ti2O6TiO3TiOTiOTiO2TiO6TiO2TiO2TiO2TiO4TiOTiO4Ti2O3TiO3TiOTiO3Ti4O4Ti2O5TiO3Ti2O2TiO2TiOTiO2Ti2OTiOTi2O2TiO2TiO2TiO3Ti2O2Ti2O5TiOTiO4TiOTiOTiOTiOTiO4TiOTiOTiOTiO3TiO2TiO2TiOTiO5
_chemical_formula_sum              "Ti63 O126"
_cell_length_a       12.6444
_cell_length_b       12.6444
_cell_length_c       28.3467
_cell_angle_alpha    90
_cell_angle_beta     90
_cell_angle_gamma    90

_space_group_name_H-M_alt    "P 1"
_space_group_IT_number       1

loop_
  _space_group_symop_operation_xyz
  'x, y, z'

loop_
  _atom_site_type_symbol
  _atom_site_label
  _atom_site_symmetry_multiplicity
  _atom_site_fract_x
  _atom_site_fract_y
  _atom_site_fract_z
  _atom_site_occupancy
  Ti  Ti1       1.0  0.20658  0.23620  0.05027  1.0000
  O   O1        1.0  0.07195  0.24388  0.02698  1.0000
  O   O2        1.0  0.03225  0.06218  0.07742  1.0000
  O   O3        1.0  0.11723  0.14829  0.36172  1.0000
  Ti  Ti2       1.0  0.10731  0.04035  0.22876  1.0000
  O   O4        1.0  0.19159  0.07183  0.28445  1.0000
  O   O5        1.0  0.14923  0.15944  0.19367  1.0000
  O   O6        1.0  0.15768  0.21643  0.11157  1.0000
  Ti  Ti3       1.0  0.17238  0.28006  0.34129  1.0000
  Ti  Ti4       1.0  0.10502  0.28864  0.16457  1.0000
  O   O7        1.0  0.02132  0.30778  0.32099  1.0000
  Ti  Ti5       1.0  0.10922  0.00765  0.33597  1.0000
  O   O8        1.0  0.24082  0.02119  0.12299  1.0000
  O   O9        1.0  0.04317  0.28260  0.47585  1.0000
  O   O10       1.0  0.01522  0.03294  0.41790  1.0000
  O   O11       1.0  0.20482  0.14272  0.45318  1.0000
  O   O12       1.0  0.10764  0.32327  0.39843  1.0000
  Ti  Ti6       1.0  0.07361  0.17386  0.42934  1.0000
  O   O13       1.0  0.00137  0.13089  0.25348  1.0000
  O   O14       1.0  0.06575  0.49766  0.06515  1.0000
  O   O15       1.0  0.21408  0.63956  0.07972  1.0000
  O   O16       1.0  0.12266  0.43892  0.15123  1.0000
  Ti  Ti7       1.0  0.13770  0.49055  0.21579  1.0000
  Ti  Ti8       1.0  0.19563  0.49866  0.09626  1.0000
  O   O17       1.0  0.02698  0.61378  0.35319  1.0000
  O   O18       1.0  0.19293  0.61337  0.18626  1.0000
  O   O19       1.0  0.12880  0.52240  0.28285  1.0000
  O   O20       1.0  0.10519  0.34909  0.23086  1.0000
  O   O21       1.0  0.00744  0.57384  0.22038  1.0000
  O   O22       1.0  0.23531  0.51308  0.36821  1.0000
  Ti  Ti9       1.0  0.08396  0.41094  0.45043  1.0000
  O   O23       1.0  0.23488  0.43046  0.45442  1.0000
  O   O24       1.0  0.09003  0.55844  0.44239  1.0000
  O   O25       1.0  0.19784  0.89308  0.05932  1.0000
  Ti  Ti10      1.0  0.19200  0.75077  0.03885  1.0000
  O   O26       1.0  0.04737  0.74479  0.04123  1.0000
  Ti  Ti11      1.0  0.13354  0.72201  0.34054  1.0000
  O   O27       1.0  0.05532  0.71381  0.28184  1.0000
  Ti  Ti12      1.0  0.10418  0.73501  0.18788  1.0000
  O   O28       1.0  0.07973  0.86071  0.35914  1.0000
  O   O29       1.0  0.06008  0.93532  0.27397  1.0000
  Ti  Ti13      1.0  0.10171  0.95606  0.10935  1.0000
  O   O30       1.0  0.16328  0.83713  0.14542  1.0000
  O   O31       1.0  0.22331  0.79260  0.22614  1.0000
  O   O32       1.0  0.23258  0.97921  0.37519  1.0000
  O   O33       1.0  0.03962  0.99698  0.17199  1.0000
  O   O34       1.0  0.14586  0.87047  0.45545  1.0000
  O   O35       1.0  0.21194  0.71465  0.39598  1.0000
  Ti  Ti14      1.0  0.02013  0.88151  0.42316  1.0000
  O   O36       1.0  0.27244  0.11121  0.03780  1.0000
  O   O37       1.0  0.46569  0.04961  0.06913  1.0000
  Ti  Ti15      1.0  0.28600  0.13127  0.16609  1.0000
  O   O38       1.0  0.26376  0.30996  0.17501  1.0000
  O   O39       1.0  0.37006  0.10480  0.32230  1.0000
  Ti  Ti16      1.0  0.44473  0.22092  0.34820  1.0000
  O   O40       1.0  0.37795  0.19899  0.12204  1.0000
  O   O41       1.0  0.42333  0.03575  0.16873  1.0000
  Ti  Ti17      1.0  0.33918  0.04465  0.26366  1.0000
  O   O42       1.0  0.33608  0.17425  0.22862  1.0000
  O   O43       1.0  0.44190  0.29845  0.28933  1.0000
  O   O44       1.0  0.30444  0.27477  0.37663  1.0000
  O   O45       1.0  0.49182  0.03169  0.25953  1.0000
  Ti  Ti18      1.0  0.34198  0.32499  0.24016  1.0000
  O   O46       1.0  0.38575  0.24516  0.46695  1.0000
  Ti  Ti19      1.0  0.34389  0.10442  0.45802  1.0000
  O   O47       1.0  0.42310  0.09852  0.40178  1.0000
  O   O48       1.0  0.26196  0.36567  0.07520  1.0000
  O   O49       1.0  0.32226  0.49412  0.13483  1.0000
  O   O50       1.0  0.29180  0.47999  0.23324  1.0000
  Ti  Ti20      1.0  0.27648  0.51794  0.30447  1.0000
  Ti  Ti21      1.0  0.37414  0.35129  0.12878  1.0000
  O   O51       1.0  0.44132  0.36542  0.19142  1.0000
  O   O52       1.0  0.42947  0.52560  0.31779  1.0000
  O   O53       1.0  0.40079  0.64678  0.24025  1.0000
  Ti  Ti22      1.0  0.35444  0.59118  0.18248  1.0000
  O   O54       1.0  0.48022  0.34807  0.38432  1.0000
  O   O55       1.0  0.25263  0.35795  0.29715  1.0000
  O   O56       1.0  0.49758  0.36453  0.09523  1.0000
  Ti  Ti23      1.0  0.35595  0.35961  0.42883  1.0000
  O   O57       1.0  0.39810  0.50625  0.41900  1.0000
  Ti  Ti24      1.0  0.25180  0.58174  0.42883  1.0000
  O   O58       1.0  0.28371  0.73656  -0.01120  1.0000
  O   O59       1.0  0.42939  0.71823  0.05609  1.0000
  O   O60       1.0  0.39489  0.91243  0.01531  1.0000
  Ti  Ti25      1.0  0.42399  0.76956  -0.00429  1.0000
  Ti  Ti26      1.0  0.32353  0.98638  0.06507  1.0000
  Ti  Ti27      1.0  0.30120  0.87389  0.16999  1.0000
  Ti  Ti28      1.0  0.47289  0.74957  0.11802  1.0000
  O   O61       1.0  0.34922  0.73035  0.15748  1.0000
  O   O62       1.0  0.47579  0.74554  0.30431  1.0000
  O   O63       1.0  0.40714  0.86799  0.22027  1.0000
  O   O64       1.0  0.38090  0.88199  0.10996  1.0000
  Ti  Ti29      1.0  0.37677  0.97868  0.36271  1.0000
  Ti  Ti30      1.0  0.34556  0.77715  0.26889  1.0000
  O   O65       1.0  0.33048  0.91150  0.30088  1.0000
  O   O66       1.0  0.25939  0.67800  0.30626  1.0000
  O   O67       1.0  0.34374  0.95763  0.46135  1.0000
  O   O68       1.0  0.30890  0.68974  0.46707  1.0000
  O   O69       1.0  0.39046  0.83506  0.39190  1.0000
  Ti  Ti31      1.0  0.28211  0.82561  0.44156  1.0000
  O   O70       1.0  0.25130  0.99462  0.20929  1.0000
  O   O71       1.0  0.62114  0.07423  -0.00067  1.0000
  O   O72       1.0  0.65044  0.30497  0.03192  1.0000
  Ti  Ti32      1.0  0.70041  0.17014  0.03160  1.0000
  Ti  Ti33      1.0  0.51531  0.11714  0.12506  1.0000
  O   O73       1.0  0.57948  0.16188  0.32991  1.0000
  O   O74       1.0  0.62327  0.02917  0.16524  1.0000
  Ti  Ti34      1.0  0.61213  0.01091  0.30522  1.0000
  O   O75       1.0  0.55215  0.21459  0.17191  1.0000
  O   O76       1.0  0.65405  0.15097  0.09588  1.0000
  Ti  Ti35      1.0  0.70863  0.22995  0.30778  1.0000
  O   O77       1.0  0.71255  0.09462  0.27322  1.0000
  Ti  Ti36      1.0  0.74637  0.11468  0.15236  1.0000
  O   O78       1.0  0.73944  0.26385  0.17761  1.0000
  O   O79       1.0  0.65644  0.53411  0.05975  1.0000
  Ti  Ti37      1.0  0.72879  0.64894  0.07897  1.0000
  Ti  Ti38      1.0  0.63678  0.39876  0.08161  1.0000
  O   O80       1.0  0.64243  0.43624  0.15087  1.0000
  Ti  Ti39      1.0  0.71292  0.60906  0.35674  1.0000
  O   O81       1.0  0.55811  0.49670  0.22864  1.0000
  Ti  Ti40      1.0  0.63582  0.57318  0.18246  1.0000
  Ti  Ti41      1.0  0.52659  0.60843  0.27518  1.0000
  O   O82       1.0  0.64434  0.53682  0.30544  1.0000
  O   O83       1.0  0.55569  0.64198  0.36900  1.0000
  Ti  Ti42      1.0  0.51477  0.49534  0.37564  1.0000
  O   O84       1.0  0.50269  0.61607  0.15621  1.0000
  O   O85       1.0  0.65988  0.49151  0.39132  1.0000
  Ti  Ti43      1.0  0.59350  0.34043  0.20182  1.0000
  O   O86       1.0  0.67164  0.33626  0.26117  1.0000
  O   O87       1.0  0.55239  0.83386  -0.01450  1.0000
  Ti  Ti44      1.0  0.54219  0.96302  0.02068  1.0000
  O   O88       1.0  0.62188  0.92509  0.07216  1.0000
  O   O89       1.0  0.61567  0.73093  0.09745  1.0000
  O   O90       1.0  0.55888  0.84340  0.15940  1.0000
  Ti  Ti45      1.0  0.53186  0.94970  0.20563  1.0000
  Ti  Ti46      1.0  0.52362  0.78984  0.36588  1.0000
  O   O91       1.0  0.62995  0.90002  0.25416  1.0000
  O   O92       1.0  0.70708  0.74109  0.31781  1.0000
  Ti  Ti47      1.0  0.69209  0.86382  0.12239  1.0000
  Ti  Ti48      1.0  0.73201  0.79135  0.24960  1.0000
  O   O93       1.0  0.51788  0.93667  0.34481  1.0000
  O   O94       1.0  0.63132  0.68113  0.23241  1.0000
  O   O95       1.0  0.65053  0.80785  0.39797  1.0000
  O   O96       1.0  0.73403  0.95633  0.34134  1.0000
  O   O97       1.0  0.84377  0.17723  0.02673  1.0000
  Ti  Ti49      1.0  0.96243  0.18716  0.06477  1.0000
  O   O98       1.0  0.85685  0.18305  0.11718  1.0000
  Ti  Ti50      1.0  0.86183  0.06733  0.26799  1.0000
  O   O99       1.0  0.84459  0.05718  0.19994  1.0000
  O   O100      1.0  0.94196  0.03800  0.32885  1.0000
  O   O101      1.0  0.84854  0.22557  0.27742  1.0000
  O   O102      1.0  0.95904  0.28488  0.18862  1.0000
  Ti  Ti51      1.0  0.97750  0.28571  0.25623  1.0000
  O   O103      1.0  0.77744  0.16002  0.35813  1.0000
  Ti  Ti52      1.0  0.85389  0.32408  0.14575  1.0000
  O   O104      1.0  0.97678  0.32448  0.10028  1.0000
  Ti  Ti53      1.0  0.87002  0.06389  0.38581  1.0000
  O   O105      1.0  0.93398  0.20529  0.40326  1.0000
  Ti  Ti54      1.0  0.91165  0.32998  0.36864  1.0000
  O   O106      1.0  0.87271  0.60177  0.06980  1.0000
  Ti  Ti55      1.0  0.92947  0.46418  0.08109  1.0000
  O   O107      1.0  0.78700  0.35909  0.33408  1.0000
  O   O108      1.0  0.89958  0.47390  0.14914  1.0000
  O   O109      1.0  0.79283  0.38795  0.08941  1.0000
  O   O110      1.0  0.91659  0.42864  0.26684  1.0000
  Ti  Ti56      1.0  0.87763  0.60013  0.18674  1.0000
  O   O111      1.0  0.83892  0.55872  0.31864  1.0000
  Ti  Ti57      1.0  0.98077  0.57149  0.28983  1.0000
  O   O112      1.0  0.76469  0.52125  0.21990  1.0000
  Ti  Ti58      1.0  0.76239  0.45347  0.28014  1.0000
  O   O113      1.0  0.75326  0.62602  0.14627  1.0000
  Ti  Ti59      1.0  0.95506  0.60701  0.41161  1.0000
  O   O114      1.0  0.94650  0.44782  0.40924  1.0000
  O   O115      1.0  0.81672  0.66640  0.39553  1.0000
  O   O116      1.0  0.85822  0.70032  0.24367  1.0000
  Ti  Ti60      1.0  0.94413  0.73714  0.08568  1.0000
  O   O117      1.0  0.80096  0.77926  0.08742  1.0000
  O   O118      1.0  0.79357  0.97840  0.12563  1.0000
  Ti  Ti61      1.0  0.78378  0.82506  0.37058  1.0000
  O   O119      1.0  0.84406  0.91170  0.25890  1.0000
  O   O120      1.0  0.77202  0.83216  0.18163  1.0000
  Ti  Ti62      1.0  0.90040  0.92692  0.16884  1.0000
  O   O121      1.0  0.89844  0.79603  0.33068  1.0000
  Ti  Ti63      1.0  0.95881  0.82323  0.27253  1.0000
  O   O122      1.0  0.97592  0.86827  0.11375  1.0000
  O   O123      1.0  0.98875  0.82434  0.20602  1.0000
  O   O124      1.0  0.98154  0.67633  0.14555  1.0000
  O   O125      1.0  0.98387  0.74262  0.43112  1.0000
  O   O126      1.0  0.86912  0.91870  0.40774  1.0000
