data_image0
_chemical_formula_structural       TiO3TiO5TiOTiO3TiOTiO4TiO3TiO3TiOTiOTi2O4TiO4Ti2O2Ti2O3Ti2OTiO3TiO3TiO2TiOTiO4TiOTiOTiO2TiO2TiOTiO4Ti2O2TiO3TiOTiO4TiOTiO3TiOTiO2TiO4TiOTiOTiOTiOTiO3TiO4TiO4Ti2O2Ti2O4TiO2TiO3TiOTiO2TiOTiO2TiO3TiOTiO2TiO3Ti2O
_chemical_formula_sum              "Ti63 O126"
_cell_length_a       12.6444
_cell_length_b       12.6444
_cell_length_c       28.3467
_cell_angle_alpha    90
_cell_angle_beta     90
_cell_angle_gamma    90

_space_group_name_H-M_alt    "P 1"
_space_group_IT_number       1

loop_
  _space_group_symop_operation_xyz
  'x, y, z'

loop_
  _atom_site_type_symbol
  _atom_site_label
  _atom_site_symmetry_multiplicity
  _atom_site_fract_x
  _atom_site_fract_y
  _atom_site_fract_z
  _atom_site_occupancy
  Ti  Ti1       1.0  0.05483  0.09626  0.05972  1.0000
  O   O1        1.0  0.16929  0.19101  0.04627  1.0000
  O   O2        1.0  0.07648  0.13343  0.37369  1.0000
  O   O3        1.0  0.20343  0.06606  0.22464  1.0000
  Ti  Ti2       1.0  0.10604  0.16756  0.25953  1.0000
  O   O4        1.0  0.07852  0.09555  0.12738  1.0000
  O   O5        1.0  0.04118  0.04721  0.28798  1.0000
  O   O6        1.0  0.22062  0.23032  0.29000  1.0000
  O   O7        1.0  0.11967  0.24365  0.19512  1.0000
  O   O8        1.0  0.02696  0.28131  0.30215  1.0000
  Ti  Ti3       1.0  0.09333  0.27927  0.37499  1.0000
  O   O9        1.0  0.01354  0.01333  0.20101  1.0000
  Ti  Ti4       1.0  0.23770  0.31857  0.16551  1.0000
  O   O10       1.0  0.21825  0.26840  0.40950  1.0000
  O   O11       1.0  0.22038  0.08449  0.46179  1.0000
  O   O12       1.0  0.17908  0.62050  0.02612  1.0000
  Ti  Ti5       1.0  0.03507  0.61590  0.03080  1.0000
  O   O13       1.0  0.12384  0.41705  0.35199  1.0000
  Ti  Ti6       1.0  0.04076  0.43789  0.29216  1.0000
  O   O14       1.0  0.20789  0.45987  0.18482  1.0000
  O   O15       1.0  0.18431  0.45499  0.27259  1.0000
  O   O16       1.0  0.15438  0.37696  0.11149  1.0000
  O   O17       1.0  0.15297  0.61775  0.32009  1.0000
  Ti  Ti7       1.0  0.11585  0.51900  0.13784  1.0000
  O   O18       1.0  0.01747  0.53088  0.08528  1.0000
  O   O19       1.0  0.23923  0.59629  0.11572  1.0000
  O   O20       1.0  0.00871  0.57131  0.25557  1.0000
  Ti  Ti8       1.0  0.24239  0.49870  0.33613  1.0000
  O   O21       1.0  0.20731  0.65642  0.22228  1.0000
  O   O22       1.0  0.24467  0.65559  0.46860  1.0000
  O   O23       1.0  0.03146  0.76210  0.04365  1.0000
  Ti  Ti9       1.0  0.11611  0.86358  0.07275  1.0000
  O   O24       1.0  0.17477  0.99848  0.06350  1.0000
  Ti  Ti10      1.0  0.24018  0.72085  0.15958  1.0000
  O   O25       1.0  0.08782  0.67750  0.15264  1.0000
  Ti  Ti11      1.0  0.09317  0.69607  0.26758  1.0000
  Ti  Ti12      1.0  0.21985  0.73134  0.35686  1.0000
  O   O26       1.0  0.03094  0.80899  0.23109  1.0000
  O   O27       1.0  0.20024  0.79379  0.29329  1.0000
  O   O28       1.0  0.07109  0.87789  0.13683  1.0000
  O   O29       1.0  0.22656  0.85535  0.19785  1.0000
  Ti  Ti13      1.0  0.14662  0.98200  0.17264  1.0000
  O   O30       1.0  0.23994  0.81340  0.10258  1.0000
  O   O31       1.0  0.09587  0.73629  0.39668  1.0000
  O   O32       1.0  0.04753  0.93451  0.38383  1.0000
  O   O33       1.0  0.13277  0.87260  0.46849  1.0000
  Ti  Ti14      1.0  0.16649  0.97527  0.42232  1.0000
  Ti  Ti15      1.0  0.11684  0.72925  0.46347  1.0000
  O   O34       1.0  0.24916  0.85491  0.39288  1.0000
  O   O35       1.0  0.38157  0.19044  0.05579  1.0000
  Ti  Ti16      1.0  0.25737  0.30530  0.06794  1.0000
  Ti  Ti17      1.0  0.29357  0.08227  0.08412  1.0000
  O   O36       1.0  0.28455  0.02204  0.14802  1.0000
  O   O37       1.0  0.32110  0.24523  0.20952  1.0000
  O   O38       1.0  0.40697  0.13495  0.26949  1.0000
  Ti  Ti18      1.0  0.34679  0.09771  0.20559  1.0000
  Ti  Ti19      1.0  0.35808  0.28204  0.27908  1.0000
  O   O39       1.0  0.48020  0.04059  0.36035  1.0000
  Ti  Ti20      1.0  0.47835  0.01675  0.29387  1.0000
  O   O40       1.0  0.48401  0.10516  0.18031  1.0000
  O   O41       1.0  0.25939  0.20495  0.12221  1.0000
  O   O42       1.0  0.29253  0.03843  0.38855  1.0000
  Ti  Ti21      1.0  0.31672  0.16475  0.42464  1.0000
  O   O43       1.0  0.42826  0.24034  0.39001  1.0000
  O   O44       1.0  0.45106  0.10820  0.45128  1.0000
  O   O45       1.0  0.49792  0.30767  0.30591  1.0000
  Ti  Ti22      1.0  0.30177  0.57278  0.05521  1.0000
  O   O46       1.0  0.44580  0.53133  0.06895  1.0000
  O   O47       1.0  0.27521  0.43262  0.03711  1.0000
  Ti  Ti23      1.0  0.28689  0.52668  0.23345  1.0000
  O   O48       1.0  0.38604  0.41330  0.24379  1.0000
  Ti  Ti24      1.0  0.46773  0.38410  0.36839  1.0000
  O   O49       1.0  0.35104  0.37307  0.11911  1.0000
  O   O50       1.0  0.33639  0.38588  0.33403  1.0000
  O   O51       1.0  0.39087  0.57959  0.19212  1.0000
  O   O52       1.0  0.33744  0.57756  0.29401  1.0000
  Ti  Ti25      1.0  0.49246  0.40942  0.10477  1.0000
  O   O53       1.0  0.28292  0.60080  0.38362  1.0000
  Ti  Ti26      1.0  0.36333  0.59351  0.44007  1.0000
  O   O54       1.0  0.41626  0.46410  0.41972  1.0000
  Ti  Ti27      1.0  0.45606  0.66533  0.30351  1.0000
  O   O55       1.0  0.37947  0.70743  0.05661  1.0000
  O   O56       1.0  0.37308  0.96733  0.06390  1.0000
  Ti  Ti28      1.0  0.30926  0.85574  0.25465  1.0000
  O   O57       1.0  0.38900  0.75559  0.15207  1.0000
  O   O58       1.0  0.40864  0.74433  0.24847  1.0000
  Ti  Ti29      1.0  0.39749  0.84185  0.09544  1.0000
  O   O59       1.0  0.41099  0.95873  0.22681  1.0000
  Ti  Ti30      1.0  0.37908  0.91458  0.36998  1.0000
  O   O60       1.0  0.34465  0.94364  0.30605  1.0000
  O   O61       1.0  0.37378  0.75690  0.34305  1.0000
  O   O62       1.0  0.48610  0.67099  0.44635  1.0000
  O   O63       1.0  0.45254  0.89094  0.42611  1.0000
  Ti  Ti31      1.0  0.49946  0.68486  0.19081  1.0000
  Ti  Ti32      1.0  0.53431  0.19049  0.05945  1.0000
  O   O64       1.0  0.68949  0.22478  0.05192  1.0000
  O   O65       1.0  0.58119  0.05783  0.07461  1.0000
  Ti  Ti33      1.0  0.60290  0.20034  0.17261  1.0000
  O   O66       1.0  0.62943  0.14887  0.32680  1.0000
  O   O67       1.0  0.60021  0.02386  0.25408  1.0000
  O   O68       1.0  0.55702  0.29318  0.21835  1.0000
  Ti  Ti34      1.0  0.64802  0.29302  0.30478  1.0000
  O   O69       1.0  0.53044  0.26253  0.11931  1.0000
  Ti  Ti35      1.0  0.73105  0.07000  0.28747  1.0000
  O   O70       1.0  0.66793  0.06001  0.17146  1.0000
  O   O71       1.0  0.72486  0.24944  0.14297  1.0000
  O   O72       1.0  0.73529  0.21467  0.25986  1.0000
  O   O73       1.0  0.60608  0.30794  0.37599  1.0000
  Ti  Ti36      1.0  0.55654  0.15801  0.38708  1.0000
  O   O74       1.0  0.63489  0.04968  0.42344  1.0000
  Ti  Ti37      1.0  0.68297  0.37238  0.03680  1.0000
  O   O75       1.0  0.64267  0.63822  0.02777  1.0000
  O   O76       1.0  0.72699  0.46853  -0.00584  1.0000
  O   O77       1.0  0.53364  0.33475  0.03911  1.0000
  Ti  Ti38      1.0  0.67906  0.54919  0.13680  1.0000
  O   O78       1.0  0.52347  0.51199  0.33706  1.0000
  Ti  Ti39      1.0  0.65630  0.55708  0.30440  1.0000
  O   O79       1.0  0.67286  0.64299  0.18991  1.0000
  O   O80       1.0  0.56144  0.64897  0.12372  1.0000
  Ti  Ti40      1.0  0.52917  0.43702  0.22866  1.0000
  O   O81       1.0  0.53645  0.58343  0.25246  1.0000
  O   O82       1.0  0.55737  0.46518  0.16464  1.0000
  O   O83       1.0  0.63331  0.45781  0.08733  1.0000
  O   O84       1.0  0.64579  0.42606  0.27303  1.0000
  Ti  Ti41      1.0  0.52332  0.66280  0.06001  1.0000
  O   O85       1.0  0.54152  0.81186  0.06661  1.0000
  Ti  Ti42      1.0  0.60644  0.75409  0.44625  1.0000
  O   O86       1.0  0.59901  0.69161  0.31917  1.0000
  Ti  Ti43      1.0  0.62684  0.92291  0.09077  1.0000
  O   O87       1.0  0.53123  0.88187  0.31212  1.0000
  Ti  Ti44      1.0  0.54967  0.96238  0.19408  1.0000
  O   O88       1.0  0.57675  0.81285  0.20283  1.0000
  Ti  Ti45      1.0  0.66991  0.82562  0.32300  1.0000
  O   O89       1.0  0.70890  0.88296  0.14868  1.0000
  O   O90       1.0  0.71966  0.96722  0.33594  1.0000
  O   O91       1.0  0.72706  0.83046  0.26028  1.0000
  Ti  Ti46      1.0  0.74017  0.77339  0.20038  1.0000
  O   O92       1.0  0.72650  0.67801  0.46072  1.0000
  O   O93       1.0  0.50404  0.92108  0.13363  1.0000
  O   O94       1.0  0.60732  0.87667  0.48403  1.0000
  O   O95       1.0  0.65052  0.83956  0.39497  1.0000
  Ti  Ti47      1.0  0.52699  0.98622  0.46197  1.0000
  O   O96       1.0  0.92954  0.16815  0.05638  1.0000
  O   O97       1.0  0.86470  0.12884  0.31268  1.0000
  O   O98       1.0  0.87129  0.10734  0.14001  1.0000
  O   O99       1.0  0.95561  0.19438  0.23070  1.0000
  Ti  Ti48      1.0  0.96719  0.04811  0.35110  1.0000
  Ti  Ti49      1.0  0.81967  0.22134  0.09372  1.0000
  O   O100      1.0  0.82030  0.01933  0.23887  1.0000
  O   O101      1.0  0.93472  0.29979  0.13165  1.0000
  Ti  Ti50      1.0  0.87756  0.26157  0.27913  1.0000
  Ti  Ti51      1.0  0.99170  0.18470  0.16664  1.0000
  O   O102      1.0  0.78966  0.32812  0.32750  1.0000
  O   O103      1.0  0.95448  0.31744  0.38929  1.0000
  O   O104      1.0  0.85951  0.05396  0.39662  1.0000
  O   O105      1.0  0.81581  0.36707  0.07037  1.0000
  Ti  Ti52      1.0  0.78197  0.59641  0.01743  1.0000
  O   O106      1.0  0.92164  0.56017  0.00183  1.0000
  O   O107      1.0  0.91309  0.39929  0.25290  1.0000
  Ti  Ti53      1.0  0.89592  0.44940  0.11446  1.0000
  O   O108      1.0  0.79396  0.47947  0.16655  1.0000
  O   O109      1.0  0.93678  0.48918  0.33456  1.0000
  O   O110      1.0  0.79998  0.56695  0.08789  1.0000
  Ti  Ti54      1.0  0.87195  0.62397  0.32928  1.0000
  O   O111      1.0  0.79442  0.58377  0.27200  1.0000
  Ti  Ti55      1.0  0.88163  0.53061  0.21862  1.0000
  O   O112      1.0  0.98497  0.49279  0.16841  1.0000
  O   O113      1.0  0.75279  0.52885  0.35391  1.0000
  Ti  Ti56      1.0  0.84443  0.41302  0.37920  1.0000
  O   O114      1.0  0.84626  0.48593  0.43625  1.0000
  Ti  Ti57      1.0  0.86183  0.62691  0.45239  1.0000
  O   O115      1.0  0.91137  0.66120  0.39236  1.0000
  O   O116      1.0  0.83211  0.73677  0.01635  1.0000
  Ti  Ti58      1.0  0.88202  0.84714  0.05157  1.0000
  O   O117      1.0  0.76095  0.92590  0.06319  1.0000
  O   O118      1.0  0.99180  0.95345  0.05267  1.0000
  O   O119      1.0  0.87217  0.67581  0.19400  1.0000
  Ti  Ti59      1.0  0.97470  0.77288  0.16740  1.0000
  O   O120      1.0  0.79112  0.74600  0.33704  1.0000
  Ti  Ti60      1.0  0.95841  0.80706  0.37108  1.0000
  O   O121      1.0  0.86959  0.86994  0.19392  1.0000
  O   O122      1.0  0.92065  0.91580  0.31949  1.0000
  Ti  Ti61      1.0  0.95126  0.93907  0.25411  1.0000
  O   O123      1.0  0.89874  0.78850  0.11116  1.0000
  O   O124      1.0  0.98501  0.72423  0.31387  1.0000
  O   O125      1.0  0.85640  0.85500  0.41454  1.0000
  Ti  Ti62      1.0  0.75192  0.95695  0.40274  1.0000
  Ti  Ti63      1.0  0.80418  0.99809  0.17230  1.0000
  O   O126      1.0  0.98874  0.66941  0.47994  1.0000
