data_image0
_chemical_formula_structural       OTi3O6TiOTiO3TiO4Ti2OTiO4Ti2O2Ti2OTiO5TiOTiO3TiO2Ti2OTi2O3TiO4TiO2TiOTiO4TiO3TiOTiO2TiO2TiO2Ti3O6Ti2O4Ti3O3TiO2Ti2O7TiO3Ti2OTiO2TiO4TiO4Ti2O2TiO3Ti3O2TiO5Ti2O2TiO2TiO5TiO3TiOTi2O5TiO
_chemical_formula_sum              "O126 Ti63"
_cell_length_a       12.6444
_cell_length_b       12.6444
_cell_length_c       28.3467
_cell_angle_alpha    90
_cell_angle_beta     90
_cell_angle_gamma    90

_space_group_name_H-M_alt    "P 1"
_space_group_IT_number       1

loop_
  _space_group_symop_operation_xyz
  'x, y, z'

loop_
  _atom_site_type_symbol
  _atom_site_label
  _atom_site_symmetry_multiplicity
  _atom_site_fract_x
  _atom_site_fract_y
  _atom_site_fract_z
  _atom_site_occupancy
  O   O1        1.0  0.14155  0.12210  0.03920  1.0000
  Ti  Ti1       1.0  0.23877  0.21443  0.06545  1.0000
  Ti  Ti2       1.0  0.05638  0.07746  0.09185  1.0000
  Ti  Ti3       1.0  0.11346  0.17349  0.27578  1.0000
  O   O2        1.0  0.20783  0.14454  0.22699  1.0000
  O   O3        1.0  0.14987  0.18522  0.12029  1.0000
  O   O4        1.0  0.18366  0.06445  0.31485  1.0000
  O   O5        1.0  0.05267  0.02892  0.25326  1.0000
  O   O6        1.0  0.07840  0.29772  0.23963  1.0000
  O   O7        1.0  0.16899  0.28451  0.32007  1.0000
  Ti  Ti4       1.0  0.05215  0.31518  0.12251  1.0000
  O   O8        1.0  0.04902  0.01518  0.15694  1.0000
  Ti  Ti5       1.0  0.11811  0.09065  0.37822  1.0000
  O   O9        1.0  0.01517  0.15024  0.32745  1.0000
  O   O10       1.0  0.22627  0.18524  0.39083  1.0000
  O   O11       1.0  0.01593  0.15777  0.43051  1.0000
  Ti  Ti6       1.0  0.00068  0.30055  0.44985  1.0000
  O   O12       1.0  0.15772  0.34172  0.07313  1.0000
  O   O13       1.0  0.01371  0.55465  0.33827  1.0000
  O   O14       1.0  0.07480  0.64627  0.18560  1.0000
  O   O15       1.0  0.15565  0.39309  0.15821  1.0000
  Ti  Ti7       1.0  0.07350  0.40149  0.33430  1.0000
  Ti  Ti8       1.0  0.14873  0.43504  0.22401  1.0000
  O   O16       1.0  0.15457  0.47919  0.28902  1.0000
  Ti  Ti9       1.0  0.16375  0.59882  0.33646  1.0000
  O   O17       1.0  0.19788  0.56382  0.10096  1.0000
  O   O18       1.0  0.16883  0.46657  0.37835  1.0000
  O   O19       1.0  0.24370  0.55753  0.21210  1.0000
  O   O20       1.0  0.13268  0.35318  0.46273  1.0000
  Ti  Ti10      1.0  0.23816  0.43102  0.43550  1.0000
  Ti  Ti11      1.0  0.18294  0.88968  0.03253  1.0000
  O   O21       1.0  0.05595  0.90376  0.00172  1.0000
  O   O22       1.0  0.15961  0.76043  0.06008  1.0000
  Ti  Ti12      1.0  0.19763  0.70420  0.21797  1.0000
  Ti  Ti13      1.0  0.16661  0.94006  0.27539  1.0000
  O   O23       1.0  0.14299  0.85443  0.22134  1.0000
  Ti  Ti14      1.0  0.15666  0.89990  0.15440  1.0000
  O   O24       1.0  0.07745  0.87090  0.32095  1.0000
  O   O25       1.0  0.16145  0.96045  0.09110  1.0000
  O   O26       1.0  0.03711  0.81505  0.13012  1.0000
  O   O27       1.0  0.21751  0.75803  0.15407  1.0000
  O   O28       1.0  0.18971  0.68648  0.28476  1.0000
  Ti  Ti15      1.0  0.11715  0.68105  0.11374  1.0000
  O   O29       1.0  0.16122  0.71283  0.38294  1.0000
  Ti  Ti16      1.0  0.09376  0.84668  0.39003  1.0000
  O   O30       1.0  0.20226  0.95623  0.38999  1.0000
  O   O31       1.0  0.01550  0.98386  0.39569  1.0000
  O   O32       1.0  0.36567  0.13188  0.07181  1.0000
  Ti  Ti17      1.0  0.43667  0.00677  0.02883  1.0000
  O   O33       1.0  0.34535  0.32748  0.07618  1.0000
  O   O34       1.0  0.41212  0.10513  0.21666  1.0000
  Ti  Ti18      1.0  0.40369  0.05426  0.28129  1.0000
  Ti  Ti19      1.0  0.39342  0.05862  0.14509  1.0000
  O   O35       1.0  0.34833  0.21341  0.15113  1.0000
  Ti  Ti20      1.0  0.46442  0.25182  0.09980  1.0000
  Ti  Ti21      1.0  0.32660  0.22729  0.21815  1.0000
  O   O36       1.0  0.34454  0.19499  0.28733  1.0000
  O   O37       1.0  0.44803  0.20877  0.37341  1.0000
  O   O38       1.0  0.39266  0.02283  0.34748  1.0000
  Ti  Ti22      1.0  0.31236  0.26059  0.34776  1.0000
  O   O39       1.0  0.29105  0.36874  0.22577  1.0000
  O   O40       1.0  0.31402  0.61559  0.35052  1.0000
  O   O41       1.0  0.37098  0.46387  0.14455  1.0000
  O   O42       1.0  0.40099  0.37469  0.32691  1.0000
  Ti  Ti23      1.0  0.37841  0.49079  0.21427  1.0000
  O   O43       1.0  0.41401  0.55740  0.27313  1.0000
  O   O44       1.0  0.48451  0.57625  0.18806  1.0000
  Ti  Ti24      1.0  0.25278  0.43334  0.10669  1.0000
  O   O45       1.0  0.27910  0.56583  0.44787  1.0000
  Ti  Ti25      1.0  0.49736  0.35428  0.38588  1.0000
  O   O46       1.0  0.35327  0.36293  0.40990  1.0000
  O   O47       1.0  0.30705  0.95052  0.01462  1.0000
  O   O48       1.0  0.30071  0.95226  0.16720  1.0000
  O   O49       1.0  0.30924  0.94900  0.25940  1.0000
  Ti  Ti26      1.0  0.38542  0.69631  0.30001  1.0000
  O   O50       1.0  0.33621  0.75318  0.23877  1.0000
  O   O51       1.0  0.45366  0.96443  0.09284  1.0000
  O   O52       1.0  0.46427  0.79265  0.15823  1.0000
  Ti  Ti27      1.0  0.41061  0.87162  0.21345  1.0000
  O   O53       1.0  0.35175  0.81015  0.34215  1.0000
  Ti  Ti28      1.0  0.32352  0.67896  0.41199  1.0000
  O   O54       1.0  0.48829  0.94051  0.41204  1.0000
  O   O55       1.0  0.30473  0.81500  0.43333  1.0000
  Ti  Ti29      1.0  0.34784  0.91497  0.38937  1.0000
  O   O56       1.0  0.47107  0.67744  0.41549  1.0000
  O   O57       1.0  0.53559  0.11081  0.01583  1.0000
  Ti  Ti30      1.0  0.67116  0.15406  0.03030  1.0000
  O   O58       1.0  0.59194  0.26486  0.06587  1.0000
  O   O59       1.0  0.72498  0.28320  0.00672  1.0000
  Ti  Ti31      1.0  0.62493  0.08947  0.17996  1.0000
  Ti  Ti32      1.0  0.64665  0.20568  0.29874  1.0000
  Ti  Ti33      1.0  0.52732  0.07949  0.37371  1.0000
  O   O60       1.0  0.52085  0.14003  0.13633  1.0000
  O   O61       1.0  0.60778  0.20071  0.23295  1.0000
  O   O62       1.0  0.53924  0.09960  0.30419  1.0000
  O   O63       1.0  0.64848  0.17881  0.36616  1.0000
  O   O64       1.0  0.73142  0.07576  0.29102  1.0000
  O   O65       1.0  0.70469  0.22105  0.16325  1.0000
  Ti  Ti34      1.0  0.62480  0.32776  0.19633  1.0000
  Ti  Ti35      1.0  0.69608  0.20354  0.43003  1.0000
  O   O66       1.0  0.62857  0.06277  0.43036  1.0000
  O   O67       1.0  0.58124  0.29685  0.43382  1.0000
  O   O68       1.0  0.66472  0.00252  0.12584  1.0000
  O   O69       1.0  0.56333  0.46329  0.07072  1.0000
  Ti  Ti36      1.0  0.68414  0.38704  0.05050  1.0000
  Ti  Ti37      1.0  0.67267  0.66025  0.06514  1.0000
  Ti  Ti38      1.0  0.59687  0.63169  0.38714  1.0000
  O   O70       1.0  0.71804  0.64506  0.33803  1.0000
  O   O71       1.0  0.64731  0.47176  0.17371  1.0000
  O   O72       1.0  0.53698  0.49530  0.36450  1.0000
  Ti  Ti39      1.0  0.52219  0.49404  0.13225  1.0000
  O   O73       1.0  0.63003  0.53103  0.27142  1.0000
  O   O74       1.0  0.58005  0.63284  0.11729  1.0000
  Ti  Ti40      1.0  0.51234  0.45585  0.29791  1.0000
  Ti  Ti41      1.0  0.74063  0.51902  0.22200  1.0000
  O   O75       1.0  0.52435  0.34235  0.14587  1.0000
  O   O76       1.0  0.67663  0.54668  0.42913  1.0000
  O   O77       1.0  0.59035  0.33546  0.31830  1.0000
  O   O78       1.0  0.69221  0.66040  0.21707  1.0000
  O   O79       1.0  0.50070  0.39179  0.23340  1.0000
  O   O80       1.0  0.67399  0.71315  0.00461  1.0000
  O   O81       1.0  0.53323  0.91024  0.00314  1.0000
  Ti  Ti42      1.0  0.67103  0.86179  0.00729  1.0000
  O   O82       1.0  0.63441  0.81502  0.07364  1.0000
  O   O83       1.0  0.72159  0.99821  0.03709  1.0000
  O   O84       1.0  0.71559  0.82345  0.27104  1.0000
  Ti  Ti43      1.0  0.64249  0.68761  0.28196  1.0000
  Ti  Ti44      1.0  0.56800  0.69560  0.18007  1.0000
  O   O85       1.0  0.53048  0.74455  0.24254  1.0000
  Ti  Ti45      1.0  0.56305  0.88680  0.12281  1.0000
  O   O86       1.0  0.69105  0.98161  0.21766  1.0000
  O   O87       1.0  0.62526  0.95317  0.35092  1.0000
  Ti  Ti46      1.0  0.64274  0.95704  0.28348  1.0000
  O   O88       1.0  0.65449  0.81409  0.16629  1.0000
  O   O89       1.0  0.52955  0.68733  0.32689  1.0000
  O   O90       1.0  0.68205  0.77000  0.41006  1.0000
  O   O91       1.0  0.50638  0.97022  0.17643  1.0000
  Ti  Ti47      1.0  0.63964  0.91394  0.41561  1.0000
  O   O92       1.0  0.50060  0.93537  0.26441  1.0000
  O   O93       1.0  0.93407  0.00728  0.06469  1.0000
  O   O94       1.0  0.76984  0.15389  0.08007  1.0000
  O   O95       1.0  0.78918  0.25273  0.30364  1.0000
  Ti  Ti48      1.0  0.83227  0.23854  0.12741  1.0000
  Ti  Ti49      1.0  0.87132  0.11313  0.30756  1.0000
  O   O96       1.0  0.91617  0.16426  0.24530  1.0000
  O   O97       1.0  0.85778  0.09249  0.15512  1.0000
  Ti  Ti50      1.0  0.94782  0.04252  0.20400  1.0000
  O   O98       1.0  0.96720  0.20310  0.09667  1.0000
  O   O99       1.0  0.85094  0.15515  0.37301  1.0000
  O   O100      1.0  0.93589  0.29500  0.17088  1.0000
  Ti  Ti51      1.0  0.85567  0.31709  0.35438  1.0000
  Ti  Ti52      1.0  0.80133  0.00901  0.09907  1.0000
  Ti  Ti53      1.0  0.92157  0.33038  0.23557  1.0000
  O   O101      1.0  0.78013  0.32532  0.41294  1.0000
  O   O102      1.0  0.81349  0.13828  0.45938  1.0000
  Ti  Ti54      1.0  0.89362  0.05120  0.41916  1.0000
  O   O103      1.0  0.76850  0.37036  0.22649  1.0000
  O   O104      1.0  0.95109  0.35377  0.30147  1.0000
  O   O105      1.0  0.96834  0.42670  0.10299  1.0000
  O   O106      1.0  0.82981  0.46476  0.35909  1.0000
  O   O107      1.0  0.97126  0.63791  0.10415  1.0000
  Ti  Ti55      1.0  0.86028  0.52507  0.10715  1.0000
  Ti  Ti56      1.0  0.86870  0.60157  0.33425  1.0000
  O   O108      1.0  0.85016  0.53533  0.17558  1.0000
  O   O109      1.0  0.84041  0.57241  0.26732  1.0000
  Ti  Ti57      1.0  0.94628  0.61777  0.21710  1.0000
  O   O110      1.0  0.77496  0.36870  0.10422  1.0000
  O   O111      1.0  0.99062  0.33914  0.38523  1.0000
  Ti  Ti58      1.0  0.80700  0.48207  0.42725  1.0000
  O   O112      1.0  0.85743  0.62247  0.40793  1.0000
  O   O113      1.0  0.91172  0.41469  0.46369  1.0000
  O   O114      1.0  0.99973  0.47240  0.22649  1.0000
  O   O115      1.0  0.75016  0.52556  0.05539  1.0000
  O   O116      1.0  0.79851  0.88761  -0.02568  1.0000
  Ti  Ti59      1.0  0.91435  0.91031  0.01145  1.0000
  O   O117      1.0  0.85996  0.82532  0.05962  1.0000
  O   O118      1.0  0.87338  0.73706  0.18778  1.0000
  O   O119      1.0  0.88413  0.75858  0.34318  1.0000
  Ti  Ti60      1.0  0.89466  0.76706  0.12020  1.0000
  O   O120      1.0  0.88943  0.91921  0.23521  1.0000
  Ti  Ti61      1.0  0.77310  0.84877  0.20335  1.0000
  Ti  Ti62      1.0  0.93798  0.84729  0.29345  1.0000
  O   O121      1.0  0.83580  0.89863  0.14333  1.0000
  O   O122      1.0  0.88761  0.97026  0.32287  1.0000
  O   O123      1.0  0.97402  0.71870  0.26548  1.0000
  O   O124      1.0  0.97609  0.80160  0.42469  1.0000
  O   O125      1.0  0.79799  0.92614  0.41967  1.0000
  Ti  Ti63      1.0  0.83755  0.77222  0.40739  1.0000
  O   O126      1.0  0.78312  0.66687  0.10967  1.0000
