data_image0
_chemical_formula_structural       TiOTiOTiO4Ti3O2Ti2O6Ti3OTiO4TiO4Ti2O2TiO4TiOTi2OTiO4TiO4TiO7Ti2OTiO4Ti2O5Ti2O2TiO4TiOTiO2TiOTiO2TiO2TiO3TiO2TiO5Ti3O4Ti2O3TiOTiOTiOTiOTi2O5Ti2O4Ti2O3Ti2O4Ti3O8TiO4TiO2Ti2O4TiO
_chemical_formula_sum              "Ti63 O126"
_cell_length_a       12.6444
_cell_length_b       12.6444
_cell_length_c       28.3467
_cell_angle_alpha    90
_cell_angle_beta     90
_cell_angle_gamma    90

_space_group_name_H-M_alt    "P 1"
_space_group_IT_number       1

loop_
  _space_group_symop_operation_xyz
  'x, y, z'

loop_
  _atom_site_type_symbol
  _atom_site_label
  _atom_site_symmetry_multiplicity
  _atom_site_fract_x
  _atom_site_fract_y
  _atom_site_fract_z
  _atom_site_occupancy
  Ti  Ti1       1.0  0.19893  0.06417  0.05094  1.0000
  O   O1        1.0  0.12817  0.14930  0.00942  1.0000
  Ti  Ti2       1.0  0.03437  0.25945  0.01580  1.0000
  O   O2        1.0  0.14716  0.04937  0.19381  1.0000
  Ti  Ti3       1.0  0.10996  0.14324  0.24773  1.0000
  O   O3        1.0  0.06127  0.16251  0.12646  1.0000
  O   O4        1.0  0.18923  0.05391  0.35132  1.0000
  O   O5        1.0  0.10538  0.24486  0.30046  1.0000
  O   O6        1.0  0.16979  0.25300  0.20438  1.0000
  Ti  Ti4       1.0  0.12037  0.29227  0.13998  1.0000
  Ti  Ti5       1.0  0.02911  0.02518  0.15101  1.0000
  Ti  Ti6       1.0  0.20164  0.32596  0.34157  1.0000
  O   O7        1.0  0.00652  0.07696  0.29213  1.0000
  O   O8        1.0  0.09806  0.16384  0.43468  1.0000
  Ti  Ti7       1.0  0.21985  0.10100  0.41387  1.0000
  Ti  Ti8       1.0  0.02171  0.47164  0.05035  1.0000
  O   O9        1.0  0.13718  0.55803  0.04279  1.0000
  O   O10       1.0  0.14808  0.35192  0.00224  1.0000
  O   O11       1.0  0.16073  0.50187  0.23251  1.0000
  O   O12       1.0  0.16091  0.45951  0.31966  1.0000
  O   O13       1.0  0.03432  0.38695  0.17415  1.0000
  O   O14       1.0  0.21120  0.49467  0.13169  1.0000
  Ti  Ti9       1.0  0.17949  0.62881  0.09652  1.0000
  Ti  Ti10      1.0  0.21148  0.57883  0.35518  1.0000
  Ti  Ti11      1.0  0.08360  0.53082  0.17615  1.0000
  O   O15       1.0  0.02225  0.54324  0.11380  1.0000
  Ti  Ti12      1.0  0.05244  0.51005  0.28093  1.0000
  O   O16       1.0  0.10919  0.64748  0.30570  1.0000
  O   O17       1.0  0.05842  0.33980  0.07987  1.0000
  O   O18       1.0  0.10684  0.55566  0.40161  1.0000
  O   O19       1.0  0.05385  0.33496  0.37084  1.0000
  Ti  Ti13      1.0  0.01303  0.84675  0.07584  1.0000
  O   O20       1.0  0.15115  0.77273  0.07563  1.0000
  O   O21       1.0  0.08655  0.98486  0.08122  1.0000
  O   O22       1.0  0.01239  0.87384  0.14200  1.0000
  O   O23       1.0  0.13503  0.84975  0.35616  1.0000
  Ti  Ti14      1.0  0.05662  0.97666  0.33715  1.0000
  Ti  Ti15      1.0  0.11448  0.79485  0.29088  1.0000
  O   O24       1.0  0.08044  0.78833  0.22501  1.0000
  O   O25       1.0  0.15425  0.94779  0.28217  1.0000
  Ti  Ti16      1.0  0.22544  0.76344  0.19751  1.0000
  O   O26       1.0  0.23662  0.88055  0.15048  1.0000
  O   O27       1.0  0.20836  0.95855  0.43059  1.0000
  O   O28       1.0  0.13988  0.66748  0.15987  1.0000
  O   O29       1.0  0.30799  0.19495  0.04527  1.0000
  Ti  Ti17      1.0  0.42906  0.22028  0.40297  1.0000
  O   O30       1.0  0.27550  0.06542  0.10986  1.0000
  Ti  Ti18      1.0  0.28850  0.01618  0.17470  1.0000
  Ti  Ti19      1.0  0.31617  0.25736  0.22793  1.0000
  O   O31       1.0  0.40804  0.07356  0.32892  1.0000
  Ti  Ti20      1.0  0.37246  0.18566  0.10886  1.0000
  O   O32       1.0  0.34884  0.15886  0.17833  1.0000
  O   O33       1.0  0.44843  0.24655  0.25902  1.0000
  O   O34       1.0  0.47521  0.26202  0.34356  1.0000
  O   O35       1.0  0.45633  0.30276  0.12553  1.0000
  Ti  Ti21      1.0  0.28716  0.01293  0.29872  1.0000
  O   O36       1.0  0.25948  0.28935  0.12028  1.0000
  O   O37       1.0  0.25661  0.14181  0.26554  1.0000
  O   O38       1.0  0.27534  0.23403  0.38302  1.0000
  O   O39       1.0  0.37172  0.08446  0.41677  1.0000
  Ti  Ti22      1.0  0.29134  0.32907  0.01390  1.0000
  O   O40       1.0  0.40562  0.37408  -0.02181  1.0000
  O   O41       1.0  0.34737  0.41375  0.06170  1.0000
  O   O42       1.0  0.47547  0.48071  0.35063  1.0000
  O   O43       1.0  0.32533  0.39235  0.19678  1.0000
  O   O44       1.0  0.30927  0.35789  0.28838  1.0000
  O   O45       1.0  0.30791  0.62286  0.20305  1.0000
  O   O46       1.0  0.31662  0.59487  0.30043  1.0000
  Ti  Ti23      1.0  0.30775  0.50460  0.24533  1.0000
  Ti  Ti24      1.0  0.46649  0.37474  0.30182  1.0000
  O   O47       1.0  0.45412  0.47700  0.25364  1.0000
  Ti  Ti25      1.0  0.35111  0.41635  0.12896  1.0000
  O   O48       1.0  0.44859  0.52805  0.13857  1.0000
  O   O49       1.0  0.42073  0.34226  0.43652  1.0000
  O   O50       1.0  0.29090  0.46520  0.38473  1.0000
  O   O51       1.0  0.42964  0.63277  0.42665  1.0000
  Ti  Ti26      1.0  0.42134  0.48355  0.41837  1.0000
  Ti  Ti27      1.0  0.42250  0.66656  0.16345  1.0000
  O   O52       1.0  0.25912  0.93521  0.03771  1.0000
  O   O53       1.0  0.42834  0.87360  0.08473  1.0000
  O   O54       1.0  0.33616  0.97166  0.23695  1.0000
  O   O55       1.0  0.27386  0.71261  0.36688  1.0000
  O   O56       1.0  0.31282  0.69818  0.11395  1.0000
  Ti  Ti28      1.0  0.28643  0.84020  0.08643  1.0000
  Ti  Ti29      1.0  0.46922  0.91284  0.21957  1.0000
  O   O57       1.0  0.47696  0.81481  0.27207  1.0000
  O   O58       1.0  0.38382  0.79837  0.19100  1.0000
  Ti  Ti30      1.0  0.36704  0.74378  0.30903  1.0000
  O   O59       1.0  0.32867  0.88831  0.33341  1.0000
  O   O60       1.0  0.43545  0.97942  0.16014  1.0000
  O   O61       1.0  0.47967  0.71377  0.35138  1.0000
  O   O62       1.0  0.25383  0.77105  0.26520  1.0000
  Ti  Ti31      1.0  0.25781  0.84789  0.39477  1.0000
  O   O63       1.0  0.40181  0.87225  0.41287  1.0000
  Ti  Ti32      1.0  0.48060  0.99942  0.38381  1.0000
  O   O64       1.0  0.54931  0.29002  0.04112  1.0000
  O   O65       1.0  0.72685  0.09289  0.08319  1.0000
  Ti  Ti33      1.0  0.63575  0.12509  0.19611  1.0000
  O   O66       1.0  0.53631  0.04495  0.23709  1.0000
  Ti  Ti34      1.0  0.53416  0.14621  0.29531  1.0000
  O   O67       1.0  0.63632  0.20699  0.24978  1.0000
  O   O68       1.0  0.63473  0.02171  0.15006  1.0000
  Ti  Ti35      1.0  0.62099  0.20692  0.08326  1.0000
  O   O69       1.0  0.66142  0.23899  0.14801  1.0000
  O   O70       1.0  0.67056  0.21444  0.33257  1.0000
  Ti  Ti36      1.0  0.72919  0.29840  0.28229  1.0000
  O   O71       1.0  0.58614  0.02447  0.32699  1.0000
  O   O72       1.0  0.50355  0.10955  0.09264  1.0000
  O   O73       1.0  0.74368  0.03887  0.38964  1.0000
  Ti  Ti37      1.0  0.71400  0.18504  0.39408  1.0000
  O   O74       1.0  0.71535  0.31443  0.42548  1.0000
  O   O75       1.0  0.55766  0.13413  0.40460  1.0000
  Ti  Ti38      1.0  0.52456  0.41899  0.01106  1.0000
  O   O76       1.0  0.54235  0.52819  0.05370  1.0000
  O   O77       1.0  0.66985  0.42510  -0.00455  1.0000
  O   O78       1.0  0.63314  0.47994  0.17805  1.0000
  O   O79       1.0  0.61298  0.39605  0.28124  1.0000
  O   O80       1.0  0.60247  0.61845  0.29285  1.0000
  Ti  Ti39      1.0  0.57414  0.59412  0.35796  1.0000
  Ti  Ti40      1.0  0.59745  0.55247  0.11359  1.0000
  Ti  Ti41      1.0  0.59939  0.51990  0.24089  1.0000
  O   O81       1.0  0.69962  0.44150  0.09701  1.0000
  O   O82       1.0  0.68910  0.50413  0.36199  1.0000
  O   O83       1.0  0.73230  0.64533  0.11659  1.0000
  O   O84       1.0  0.51774  0.64488  0.21706  1.0000
  Ti  Ti42      1.0  0.73731  0.37892  0.15677  1.0000
  Ti  Ti43      1.0  0.71621  0.46425  0.42964  1.0000
  O   O85       1.0  0.56917  0.49215  0.42881  1.0000
  O   O86       1.0  0.74298  0.58565  0.46770  1.0000
  O   O87       1.0  0.55172  0.69359  0.13262  1.0000
  Ti  Ti44      1.0  0.60613  0.74351  0.25480  1.0000
  O   O88       1.0  0.59447  0.83870  0.20057  1.0000
  Ti  Ti45      1.0  0.53073  0.96126  0.10818  1.0000
  O   O89       1.0  0.65349  0.87117  0.10258  1.0000
  Ti  Ti46      1.0  0.69597  0.93571  0.34320  1.0000
  O   O90       1.0  0.69087  0.81555  0.29915  1.0000
  Ti  Ti47      1.0  0.67769  0.76626  0.15158  1.0000
  O   O91       1.0  0.70602  0.67713  0.20876  1.0000
  Ti  Ti48      1.0  0.50669  0.76434  0.41770  1.0000
  Ti  Ti49      1.0  0.71943  0.72788  0.45776  1.0000
  O   O92       1.0  0.58633  0.78026  0.47285  1.0000
  O   O93       1.0  0.58512  0.88950  0.38776  1.0000
  O   O94       1.0  0.64017  0.68835  0.40145  1.0000
  O   O95       1.0  0.93389  0.17632  0.04291  1.0000
  O   O96       1.0  0.75837  0.27557  0.06570  1.0000
  Ti  Ti50      1.0  0.85619  0.17911  0.09658  1.0000
  Ti  Ti51      1.0  0.87965  0.06553  0.25341  1.0000
  O   O97       1.0  0.88825  0.05760  0.13133  1.0000
  O   O98       1.0  0.85587  0.20638  0.28055  1.0000
  O   O99       1.0  0.98129  0.17530  0.21495  1.0000
  O   O100      1.0  0.86318  0.28753  0.14431  1.0000
  Ti  Ti52      1.0  0.95343  0.28043  0.32314  1.0000
  Ti  Ti53      1.0  0.92635  0.31272  0.20757  1.0000
  O   O101      1.0  0.77424  0.09179  0.20993  1.0000
  O   O102      1.0  0.88341  0.21501  0.37870  1.0000
  O   O103      1.0  0.86882  0.09727  0.45529  1.0000
  Ti  Ti54      1.0  0.95920  0.20657  0.43706  1.0000
  Ti  Ti55      1.0  0.78127  0.40748  0.03595  1.0000
  O   O104      1.0  0.93262  0.37270  0.01246  1.0000
  O   O105      1.0  0.87350  0.51236  0.06013  1.0000
  O   O106      1.0  0.82438  0.36913  0.32300  1.0000
  O   O107      1.0  0.98013  0.56215  0.22743  1.0000
  Ti  Ti56      1.0  0.87865  0.61151  0.11003  1.0000
  Ti  Ti57      1.0  0.84039  0.61004  0.21708  1.0000
  Ti  Ti58      1.0  0.81922  0.51865  0.33242  1.0000
  O   O108      1.0  0.96852  0.49982  0.33506  1.0000
  O   O109      1.0  0.83648  0.50193  0.16458  1.0000
  O   O110      1.0  0.77341  0.52843  0.26405  1.0000
  O   O111      1.0  0.97901  0.37284  0.26481  1.0000
  O   O112      1.0  0.78145  0.34142  0.21988  1.0000
  O   O113      1.0  0.83750  0.66390  0.32884  1.0000
  O   O114      1.0  0.85414  0.48935  0.40313  1.0000
  O   O115      1.0  0.96841  0.35012  0.44987  1.0000
  Ti  Ti59      1.0  0.99843  0.45756  0.40479  1.0000
  O   O116      1.0  0.87606  0.90650  0.07277  1.0000
  O   O117      1.0  0.95274  0.71097  0.07356  1.0000
  O   O118      1.0  0.90806  0.68700  0.16617  1.0000
  O   O119      1.0  0.95323  0.96902  0.21273  1.0000
  Ti  Ti60      1.0  0.94203  0.82168  0.19554  1.0000
  O   O120      1.0  0.80027  0.85520  0.16253  1.0000
  O   O121      1.0  0.81441  0.86330  0.37027  1.0000
  Ti  Ti61      1.0  0.77500  0.96258  0.11466  1.0000
  Ti  Ti62      1.0  0.84449  0.80333  0.30930  1.0000
  O   O122      1.0  0.98186  0.85845  0.30654  1.0000
  O   O123      1.0  0.87084  0.75138  0.24675  1.0000
  O   O124      1.0  0.80707  0.97081  0.29541  1.0000
  O   O125      1.0  0.80658  0.84597  0.45965  1.0000
  Ti  Ti63      1.0  0.85313  0.96221  0.42399  1.0000
  O   O126      1.0  0.97456  0.99861  0.38965  1.0000
