data_image0
_chemical_formula_structural       O72Ti36
_chemical_formula_sum              "O72 Ti36"
_cell_length_a       10.4312
_cell_length_b       10.5267
_cell_length_c       25.4391
_cell_angle_alpha    90
_cell_angle_beta     90
_cell_angle_gamma    90

_space_group_name_H-M_alt    "P 1"
_space_group_IT_number       1

loop_
  _space_group_symop_operation_xyz
  'x, y, z'

loop_
  _atom_site_type_symbol
  _atom_site_label
  _atom_site_symmetry_multiplicity
  _atom_site_fract_x
  _atom_site_fract_y
  _atom_site_fract_z
  _atom_site_occupancy
  O   O1        1.0  0.13471  0.86562  0.31389  1.0000
  O   O2        1.0  0.17046  0.86857  0.48528  1.0000
  O   O3        1.0  0.17465  0.81411  0.11329  1.0000
  O   O4        1.0  0.19931  0.25725  0.23054  1.0000
  O   O5        1.0  0.20175  0.55942  0.14238  1.0000
  O   O6        1.0  0.20877  0.63020  0.05002  1.0000
  O   O7        1.0  0.21764  0.29994  0.38724  1.0000
  O   O8        1.0  0.23064  0.59485  0.45719  1.0000
  O   O9        1.0  0.24193  0.07818  0.09149  1.0000
  O   O10       1.0  0.24358  0.31849  0.13388  1.0000
  O   O11       1.0  0.25925  0.04941  0.39853  1.0000
  O   O12       1.0  0.26076  0.74121  0.20996  1.0000
  O   O13       1.0  0.27416  0.50148  0.22877  1.0000
  O   O14       1.0  0.28127  0.78297  0.40576  1.0000
  O   O15       1.0  0.28592  0.51469  0.33750  1.0000
  O   O16       1.0  0.30385  0.01057  0.18799  1.0000
  O   O17       1.0  0.31670  0.00108  0.28617  1.0000
  O   O18       1.0  0.34921  0.23067  0.30882  1.0000
  O   O19       1.0  0.37131  0.76996  0.30024  1.0000
  O   O20       1.0  0.42981  0.87369  0.09564  1.0000
  O   O21       1.0  0.43247  0.30378  0.21603  1.0000
  O   O22       1.0  0.43685  0.63442  0.12567  1.0000
  O   O23       1.0  0.45032  0.33407  0.41725  1.0000
  O   O24       1.0  0.46344  0.37087  0.11465  1.0000
  O   O25       1.0  0.46893  0.92466  0.37227  1.0000
  O   O26       1.0  0.46987  0.60457  0.38958  1.0000
  O   O27       1.0  0.47491  0.55125  0.48316  1.0000
  O   O28       1.0  0.47855  0.43911  0.29290  1.0000
  O   O29       1.0  0.49584  0.12769  0.12897  1.0000
  O   O30       1.0  0.49892  0.22456  0.04442  1.0000
  O   O31       1.0  0.50299  0.83027  0.19460  1.0000
  O   O32       1.0  0.50812  0.05963  0.23469  1.0000
  O   O33       1.0  0.52502  0.53327  0.20198  1.0000
  O   O34       1.0  0.55924  0.14638  0.37021  1.0000
  O   O35       1.0  0.56472  0.77307  0.45792  1.0000
  O   O36       1.0  0.60024  0.66221  0.29213  1.0000
  O   O37       1.0  0.66523  0.41341  0.37131  1.0000
  O   O38       1.0  0.66560  0.23653  0.27522  1.0000
  O   O39       1.0  0.66835  0.94441  0.29692  1.0000
  O   O40       1.0  0.66889  0.81358  0.12464  1.0000
  O   O41       1.0  0.67152  0.34622  0.16716  1.0000
  O   O42       1.0  0.69607  0.03767  0.17150  1.0000
  O   O43       1.0  0.72316  0.56639  0.43725  1.0000
  O   O44       1.0  0.72527  0.79388  0.36905  1.0000
  O   O45       1.0  0.73528  0.95405  0.43941  1.0000
  O   O46       1.0  0.74592  0.75892  0.21523  1.0000
  O   O47       1.0  0.74833  0.58834  0.14793  1.0000
  O   O48       1.0  0.77281  0.19006  0.10119  1.0000
  O   O49       1.0  0.78353  0.09085  0.36558  1.0000
  O   O50       1.0  0.78466  0.45863  0.24272  1.0000
  O   O51       1.0  0.79181  0.27432  0.42619  1.0000
  O   O52       1.0  0.86526  0.05490  0.23779  1.0000
  O   O53       1.0  0.87429  0.33365  0.33441  1.0000
  O   O54       1.0  0.87735  0.57847  0.34028  1.0000
  O   O55       1.0  0.89909  0.27197  0.18373  1.0000
  O   O56       1.0  0.90224  0.83948  0.29780  1.0000
  O   O57       1.0  0.91379  0.93052  0.13551  1.0000
  O   O58       1.0  0.91598  0.71240  0.45880  1.0000
  O   O59       1.0  0.91821  0.68772  0.07725  1.0000
  O   O60       1.0  0.96144  0.02586  0.48573  1.0000
  O   O61       1.0  0.98571  0.43943  0.12041  1.0000
  O   O62       1.0  0.98876  0.66645  0.16788  1.0000
  O   O63       1.0  0.01341  0.40976  0.40690  1.0000
  O   O64       1.0  0.01424  0.14061  0.41076  1.0000
  O   O65       1.0  0.02661  0.45170  0.21521  1.0000
  O   O66       1.0  0.03983  0.86578  0.40192  1.0000
  O   O67       1.0  0.04606  0.63081  0.27658  1.0000
  O   O68       1.0  0.05230  0.12118  0.31044  1.0000
  O   O69       1.0  0.05376  0.13096  0.15092  1.0000
  O   O70       1.0  0.08619  0.63085  0.38641  1.0000
  O   O71       1.0  0.08854  0.93091  0.21084  1.0000
  O   O72       1.0  0.09729  0.38933  0.30985  1.0000
  Ti  Ti1       1.0  0.13249  0.62066  0.20938  1.0000
  Ti  Ti2       1.0  0.15011  0.97621  0.14195  1.0000
  Ti  Ti3       1.0  0.18707  0.48064  0.39915  1.0000
  Ti  Ti4       1.0  0.27817  0.38250  0.28212  1.0000
  Ti  Ti5       1.0  0.29911  0.89959  0.34875  1.0000
  Ti  Ti6       1.0  0.32129  0.73651  0.08629  1.0000
  Ti  Ti7       1.0  0.34920  0.14573  0.23751  1.0000
  Ti  Ti8       1.0  0.35530  0.21249  0.09018  1.0000
  Ti  Ti9       1.0  0.35664  0.87287  0.23487  1.0000
  Ti  Ti10      1.0  0.36737  0.47525  0.16044  1.0000
  Ti  Ti11      1.0  0.37702  0.19398  0.38089  1.0000
  Ti  Ti12      1.0  0.40171  0.69664  0.45065  1.0000
  Ti  Ti13      1.0  0.44164  0.60769  0.31575  1.0000
  Ti  Ti14      1.0  0.55031  0.95500  0.13815  1.0000
  Ti  Ti15      1.0  0.55824  0.47419  0.42741  1.0000
  Ti  Ti16      1.0  0.59408  0.68057  0.16850  1.0000
  Ti  Ti17      1.0  0.59525  0.38715  0.23645  1.0000
  Ti  Ti18      1.0  0.61002  0.26248  0.10231  1.0000
  Ti  Ti19      1.0  0.64039  0.96435  0.37191  1.0000
  Ti  Ti20      1.0  0.68398  0.06970  0.24410  1.0000
  Ti  Ti21      1.0  0.70476  0.24922  0.34813  1.0000
  Ti  Ti22      1.0  0.73395  0.77378  0.28958  1.0000
  Ti  Ti23      1.0  0.74151  0.75623  0.44367  1.0000
  Ti  Ti24      1.0  0.83640  0.43849  0.16717  1.0000
  Ti  Ti25      1.0  0.83869  0.46019  0.39741  1.0000
  Ti  Ti26      1.0  0.84598  0.76325  0.13791  1.0000
  Ti  Ti27      1.0  0.84638  0.10055  0.43912  1.0000
  Ti  Ti28      1.0  0.86950  0.09961  0.15328  1.0000
  Ti  Ti29      1.0  0.94181  0.47058  0.28244  1.0000
  Ti  Ti30      1.0  0.01106  0.97770  0.27204  1.0000
  Ti  Ti31      1.0  0.01750  0.73872  0.33642  1.0000
  Ti  Ti32      1.0  0.04707  0.25607  0.35693  1.0000
  Ti  Ti33      1.0  0.06469  0.59821  0.09304  1.0000
  Ti  Ti34      1.0  0.08529  0.30481  0.17083  1.0000
  Ti  Ti35      1.0  0.09819  0.73026  0.45022  1.0000
  Ti  Ti36      1.0  0.11185  0.00455  0.44355  1.0000
