240
Lattice="13.711624301021496 0.0 0.0 0.0 13.31488711161976 0.0 0.0 0.0 13.694234305606638" Properties=species:S:1:pos:R:3 pbc="T T T"
Al       0.01031730      12.97750000      13.28380000
Al       0.01401880       7.96616000      10.39820000
Al       0.24553400      11.24460000      10.80270000
Al       0.35781100      11.35830000       3.62344000
Al       0.59429300       2.91389000       8.77669000
Al       0.68010400       6.16091000       2.15698000
Al       0.70839500      12.95750000       8.79731000
Al       1.30229000       4.55874000      13.31050000
Al       1.31367000       1.31990000       6.58182000
Al       1.32354000       3.15516000       2.65961000
Al       1.78647000       4.63313000       6.73341000
Al      10.00460000       1.30183000       9.62207000
Al      10.07860000       6.26897000      13.26820000
Al      10.11720000      12.81250000       0.65964100
Al      10.17260000       7.84144000       9.83780000
Al      10.19590000      11.16260000       9.95199000
Al      10.25690000       2.87661000       7.15738000
Al      10.26670000      12.96000000       6.63425000
Al      10.30360000       6.27911000       7.36825000
Al      10.40120000       9.69073000       7.37635000
Al      10.44050000      12.18940000       3.84737000
Al      11.86150000       6.27815000       3.23287000
Al      11.92010000       9.57837000       3.28722000
Al      12.00350000       1.42362000       0.43780800
Al      12.22990000       4.47273000       0.66642400
Al      12.32170000       1.20011000       7.72778000
Al      12.35750000       7.94291000       7.87109000
Al      12.36570000      11.27850000       1.32570000
Al      12.40620000       4.64073000       7.55688000
Al      12.43250000      11.28750000       7.91956000
Al      12.77660000       7.93592000       1.13473000
Al      12.92820000       2.95135000       5.24052000
Al      13.03110000       9.62721000       5.70674000
Al      13.05790000      12.96360000       5.66736000
Al      13.07370000       6.26227000      12.43520000
Al      13.32160000       1.34532000      10.96320000
Al      13.62290000       6.40527000       5.45673000
Al      13.70150000       9.58146000      12.94200000
Al       2.18220000       6.27009000      11.34340000
Al       2.28814000       2.84838000      11.29240000
Al       2.28843000       8.11905000       2.69436000
Al       2.34143000       9.64504000      11.58730000
Al       2.37910000      12.92000000      11.56540000
Al       2.66295000       7.87914000       8.96482000
Al       2.73827000       7.37748000       5.82220000
Al       2.78874000      11.98440000       5.73823000
Al       2.79183000      11.24730000       8.86101000
Al       2.80417000       4.66039000       9.16722000
Al       2.94448000      11.23970000       2.80008000
Al       3.30458000       9.55537000       0.53421300
Al       3.31664000       6.32687000       0.53327800
Al       3.40586000      12.91420000       0.47789200
Al       3.47494000       2.93519000       0.50253000
Al       4.47521000       7.95609000      12.20610000
Al       4.49653000       4.64626000      12.32470000
Al       4.57130000       1.31776000      12.10820000
Al       4.76255000       3.02327000       2.91068000
Al       4.78239000      11.21530000      11.83320000
Al       4.92603000       9.58528000       9.66216000
Al       4.93648000       6.25389000       3.71324000
Al       4.97115000      13.00670000       9.64802000
Al       4.97199000      10.34890000       6.55884000
Al       5.06128000      12.93530000       3.18453000
Al       5.07316000       4.72381000       7.83674000
Al       5.14309000       3.00180000       9.90056000
Al       5.15642000       9.61033000       3.15463000
Al       5.29203000       7.82707000       7.31018000
Al       5.30888000       6.31556000       9.99758000
Al       5.66184000      11.27360000       0.65285000
Al       5.77821000       1.27052000       0.91302100
Al       5.85418000      12.98610000       6.20768000
Al       6.93288000       3.81649000       0.52461400
Al       7.05743000       8.44518000       0.60319700
Al       7.08872000       1.31780000       4.23560000
Al       7.20039000       1.47784000      10.58840000
Al       7.20348000       4.63797000       3.69788000
Al       7.22147000       7.93683000       3.61041000
Al       7.23642000      11.31110000       4.19474000
Al       7.26745000       2.11249000       7.24699000
Al       7.42693000       4.48770000      11.52880000
Al       7.65860000       7.26290000      11.82450000
Al       7.73330000      10.43890000      12.05160000
Al       7.83766000      12.87130000       8.65236000
Al       7.96541000       9.53145000       9.11952000
Al       8.15573000      11.18490000       6.66517000
Al       8.22037000       7.84172000       6.61522000
Al       8.46413000       1.37590000      13.49990000
Al       8.70430000      12.91130000      11.49430000
Al       9.30664000       1.28843000       2.52574000
Al       9.35152000       2.98529000       4.67268000
Al       9.39198000       6.25870000       4.68008000
Al       9.42567000       9.60864000       4.56935000
Al       9.50168000       4.52291000       2.08196000
Al       9.70311000       7.82864000       2.19128000
Al       9.87695000       4.60599000       9.59046000
Al       9.95568000       9.62033000       0.32597500
O        0.26038500       2.78351000       3.92637000
O        0.27340300       9.51277000      11.06580000
O        0.28531700       6.39547000      11.01410000
O        0.34112500      13.05200000      10.58700000
O        0.38056500       2.80746000      10.50640000
O        0.61748000      11.21160000       1.88668000
O        0.78969400       7.88542000       1.82486000
O        0.95060000       1.27950000       8.35078000
O        0.95402900      11.24490000       8.85680000
O        0.95864500       8.04522000       8.88192000
O        0.97474600       4.58705000       1.68744000
O        1.16545000       4.49603000       8.39972000
O        1.45642000       6.23848000       6.22891000
O        1.66470000       2.96127000       6.30667000
O        1.67194000      12.99560000       6.49009000
O        1.73921000       9.63032000      13.38700000
O        1.76536000      12.93300000      13.44460000
O        1.79109000       6.18105000      13.39080000
O        1.82682000       2.92474000      13.51250000
O       10.08740000       6.17136000       2.64484000
O       10.27560000       7.94463000       0.55292300
O       10.30780000       1.18133000       0.26505000
O       10.43720000       4.75009000       0.58815800
O       10.54470000      11.18600000       0.45626800
O       10.57890000       7.85834000       7.30165000
O       10.63020000      11.40420000       7.26028000
O       10.65440000       1.17345000       7.35836000
O       10.68600000       4.59710000       7.31387000
O       11.08410000       2.94530000       5.39966000
O       11.08520000       9.68604000       5.05898000
O       11.11890000       6.23252000       4.91321000
O       11.17150000      12.99800000       5.19239000
O       11.36400000       6.18210000      12.25290000
O       11.71430000       1.14768000      10.11510000
O       11.78880000       7.95285000       2.88394000
O       11.79700000      11.25190000       3.02826000
O       11.89120000      11.26050000       9.79876000
O       11.92020000       8.04410000       9.91937000
O       12.30540000       9.63442000       7.69738000
O       12.34870000       2.91491000       1.27869000
O       12.38120000      12.99110000       0.82218100
O       12.44240000       6.26290000       7.98972000
O       12.47380000       9.62581000       0.95956800
O       12.60790000       6.13819000       1.27259000
O       12.62750000       2.96249000       8.07534000
O       12.77200000      12.95530000       7.94426000
O       13.07190000       1.15674000      12.67160000
O       13.09260000       7.88021000       6.07710000
O       13.15380000       4.53597000       5.89938000
O       13.23100000       7.91472000      13.10970000
O       13.26220000      11.34130000       6.10936000
O       13.26390000       1.36307000       6.14446000
O       13.33230000       4.68129000      13.07460000
O       13.40060000      11.32420000      12.57970000
O       13.47030000       9.72694000       4.02470000
O       13.55630000       6.09690000       3.70620000
O       13.61200000      12.94910000       4.09214000
O        2.01705000      11.28920000      11.29750000
O        2.06266000       7.99568000       4.40167000
O        2.10821000      11.32300000       4.29782000
O        2.18175000       4.57317000      11.52080000
O        2.29054000       7.95560000      11.44920000
O        2.35231000       1.21157000      11.41710000
O        2.82125000       6.32325000       9.62220000
O        2.90900000       6.43877000       2.19783000
O        2.91082000      12.88500000       2.20684000
O        3.00736000       2.91595000       2.33112000
O        3.02549000       3.06004000       9.62591000
O        3.07908000       9.59611000       2.27680000
O        3.17262000       9.63060000       9.38284000
O        3.19151000      12.80560000       9.34895000
O        3.44012000       4.63859000       7.56606000
O        3.46635000       7.94181000       7.31450000
O        3.48218000      11.15100000       7.09502000
O        3.82553000       7.95528000       0.19401400
O        3.84054000       4.65649000       0.24384700
O        3.87133000      11.21580000       0.32112100
O        4.03568000       1.27890000       0.19476000
O        4.08345000       9.69227000      11.98900000
O        4.12071000       6.42539000       5.23599000
O        4.14921000       6.29450000      11.89040000
O        4.17316000      12.88040000      11.96250000
O        4.26195000       3.00286000      11.92880000
O        4.40885000      12.72660000       5.24135000
O        4.46569000       9.74641000       5.10788000
O        4.80024000      11.28260000       3.04099000
O        4.88136000       4.70830000       9.89957000
O        4.94100000       7.99498000      10.14020000
O        5.04932000       4.63933000       3.38891000
O        5.06074000       7.87486000       3.14183000
O        5.07676000      11.23740000      10.12040000
O        5.15563000       1.31979000       3.05356000
O        5.21671000       1.23049000      10.31910000
O        5.52693000       6.31712000       8.15163000
O        5.57544000       9.58091000       8.00875000
O        5.58438000       2.98020000       1.18058000
O        5.63492000      12.91660000       1.27879000
O        5.69149000      12.94100000       7.99875000
O        5.83295000       3.20755000       7.87231000
O        5.86172000       9.62010000       1.22301000
O        6.23832000       4.62073000      12.77110000
O        6.27180000       7.97837000      12.69420000
O        6.30662000       1.35161000      12.82040000
O        6.30880000      11.19510000      12.69340000
O        6.47945000       1.25081000       5.94737000
O        6.50867000       7.95961000       6.05125000
O        6.57079000      11.41400000       5.97917000
O        6.77013000       3.16922000      10.61520000
O        6.77038000      12.94570000       3.87671000
O        6.87742000       6.21769000      10.78140000
O        6.91702000       6.25008000       3.97199000
O        6.94478000       9.69548000       3.75227000
O        6.97057000       2.99599000       3.94095000
O        7.16890000       9.65873000      10.65520000
O        7.25238000      13.04820000      10.56290000
O        7.67017000       1.27369000       8.68121000
O        7.76762000       4.49994000       1.89816000
O        7.76845000       8.02330000       8.31306000
O        7.78765000       1.32217000       1.50461000
O        7.88002000      11.16290000       8.44712000
O        7.91479000       7.78773000       1.93187000
O        8.21294000       3.04037000      13.29750000
O        8.31437000       9.58437000      13.43830000
O        8.36513000       6.35629000      13.23270000
O        8.56457000      12.81950000       6.71276000
O        8.65023000      12.90220000      13.25930000
O        8.67697000       2.80205000       6.43462000
O        8.76595000       9.56608000       6.37031000
O        8.80488000       6.26575000       6.35768000
O        8.82800000       1.34153000       4.22205000
O        8.89329000       7.96687000       4.39565000
O        8.92872000       4.59762000       4.27682000
O        8.98184000       1.22210000      11.12290000
O        9.01015000      11.27310000       4.45490000
O        9.01214000       4.57653000      11.05670000
O        9.10726000       7.88809000      11.13160000
O        9.18683000      11.34170000      11.28730000
O        9.60250000      12.88110000       9.29323000
O        9.76942000       9.64884000       9.08549000
O        9.82623000       2.93349000       9.03510000
O        9.83057000       2.94439000       2.64575000
O        9.84936000      12.94390000       2.39768000
O        9.84969000       9.53678000       2.56269000
O        9.90425000       6.28122000       9.10037000
