data_image0
_chemical_formula_structural       O126Ti63
_chemical_formula_sum              "O126 Ti63"
_cell_length_a       12.6703
_cell_length_b       12.6672
_cell_length_c       27.6191
_cell_angle_alpha    90
_cell_angle_beta     90
_cell_angle_gamma    90

_space_group_name_H-M_alt    "P 1"
_space_group_IT_number       1

loop_
  _space_group_symop_operation_xyz
  'x, y, z'

loop_
  _atom_site_type_symbol
  _atom_site_label
  _atom_site_symmetry_multiplicity
  _atom_site_fract_x
  _atom_site_fract_y
  _atom_site_fract_z
  _atom_site_occupancy
  O   O1        1.0  0.01386  0.43697  0.03912  1.0000
  O   O2        1.0  0.02803  0.45277  0.41272  1.0000
  O   O3        1.0  0.03993  0.96913  0.45318  1.0000
  O   O4        1.0  0.04271  0.39257  0.13716  1.0000
  O   O5        1.0  0.04398  0.69191  0.40110  1.0000
  O   O6        1.0  0.07121  0.82214  0.08256  1.0000
  O   O7        1.0  0.07231  0.22654  0.18996  1.0000
  O   O8        1.0  0.07281  0.80136  0.21557  1.0000
  O   O9        1.0  0.08267  0.15775  0.10169  1.0000
  O   O10       1.0  0.08573  0.99777  0.15978  1.0000
  O   O11       1.0  0.09532  0.48135  0.21875  1.0000
  O   O12       1.0  0.09900  0.10877  0.27819  1.0000
  O   O13       1.0  0.10185  0.11953  0.38029  1.0000
  O   O14       1.0  0.10914  0.70696  0.30854  1.0000
  O   O15       1.0  0.11720  0.75393  0.00257  1.0000
  O   O16       1.0  0.13083  0.30795  0.26178  1.0000
  O   O17       1.0  0.14459  0.63191  0.13080  1.0000
  O   O18       1.0  0.15416  0.54888  0.35790  1.0000
  O   O19       1.0  0.17558  0.83957  0.40702  1.0000
  O   O20       1.0  0.18151  0.64480  0.22780  1.0000
  O   O21       1.0  0.18183  0.28765  0.42976  1.0000
  O   O22       1.0  0.19170  0.97815  0.32907  1.0000
  O   O23       1.0  0.19317  0.54532  0.05932  1.0000
  O   O24       1.0  0.19895  0.30085  0.05261  1.0000
  O   O25       1.0  0.20032  0.01466  0.04772  1.0000
  O   O26       1.0  0.20399  0.84599  0.15422  1.0000
  O   O27       1.0  0.21541  0.34046  0.34759  1.0000
  O   O28       1.0  0.22564  0.44139  0.13649  1.0000
  O   O29       1.0  0.22665  0.92832  0.23548  1.0000
  O   O30       1.0  0.25051  0.73866  0.06815  1.0000
  O   O31       1.0  0.25946  0.46743  0.27734  1.0000
  O   O32       1.0  0.26959  0.10634  0.20919  1.0000
  O   O33       1.0  0.28741  0.18074  0.30762  1.0000
  O   O34       1.0  0.28762  0.33677  0.20888  1.0000
  O   O35       1.0  0.29172  0.64552  0.40848  1.0000
  O   O36       1.0  0.30076  0.80557  0.34100  1.0000
  O   O37       1.0  0.30794  0.24431  0.12822  1.0000
  O   O38       1.0  0.30836  0.05743  0.11561  1.0000
  O   O39       1.0  0.31119  0.88014  0.01196  1.0000
  O   O40       1.0  0.31520  0.07305  0.38334  1.0000
  O   O41       1.0  0.32183  0.63089  0.30743  1.0000
  O   O42       1.0  0.33563  0.68660  0.17137  1.0000
  O   O43       1.0  0.33597  0.44636  0.42296  1.0000
  O   O44       1.0  0.34147  0.15582  0.03616  1.0000
  O   O45       1.0  0.37675  0.80032  0.25004  1.0000
  O   O46       1.0  0.38392  0.25365  0.37858  1.0000
  O   O47       1.0  0.38546  0.01919  0.29342  1.0000
  O   O48       1.0  0.38797  0.93615  0.18396  1.0000
  O   O49       1.0  0.39344  0.38876  0.07826  1.0000
  O   O50       1.0  0.39712  0.62087  0.05522  1.0000
  O   O51       1.0  0.40426  0.87893  0.08851  1.0000
  O   O52       1.0  0.41139  0.53177  0.13113  1.0000
  O   O53       1.0  0.42643  0.35319  0.28760  1.0000
  O   O54       1.0  0.42985  0.88445  0.40253  1.0000
  O   O55       1.0  0.43010  0.50230  0.21675  1.0000
  O   O56       1.0  0.44549  0.48757  0.35257  1.0000
  O   O57       1.0  0.48102  0.68870  0.45492  1.0000
  O   O58       1.0  0.48363  0.10736  0.20722  1.0000
  O   O59       1.0  0.48505  0.69206  0.36722  1.0000
  O   O60       1.0  0.48669  0.32136  0.16736  1.0000
  O   O61       1.0  0.49219  0.20960  0.08959  1.0000
  O   O62       1.0  0.49750  0.02266  0.02764  1.0000
  O   O63       1.0  0.50380  0.63935  0.27327  1.0000
  O   O64       1.0  0.51039  0.03608  0.11977  1.0000
  O   O65       1.0  0.51245  0.73617  0.13549  1.0000
  O   O66       1.0  0.51853  0.86220  0.30980  1.0000
  O   O67       1.0  0.51888  0.40870  0.01494  1.0000
  O   O68       1.0  0.53307  0.26229  0.44844  1.0000
  O   O69       1.0  0.53455  0.77582  0.03405  1.0000
  O   O70       1.0  0.53783  0.18298  0.29759  1.0000
  O   O71       1.0  0.54112  0.07753  0.37270  1.0000
  O   O72       1.0  0.54717  0.49235  0.42805  1.0000
  O   O73       1.0  0.56316  0.85552  0.21109  1.0000
  O   O74       1.0  0.56380  0.22374  0.01070  1.0000
  O   O75       1.0  0.57988  0.30253  0.36745  1.0000
  O   O76       1.0  0.58827  0.00637  0.26637  1.0000
  O   O77       1.0  0.59266  0.46340  0.26606  1.0000
  O   O78       1.0  0.59456  0.53972  0.16776  1.0000
  O   O79       1.0  0.59987  0.60460  0.08120  1.0000
  O   O80       1.0  0.61819  0.28610  0.23456  1.0000
  O   O81       1.0  0.62100  0.41937  0.08816  1.0000
  O   O82       1.0  0.64240  0.87095  0.12449  1.0000
  O   O83       1.0  0.66036  0.88875  0.38800  1.0000
  O   O84       1.0  0.66796  0.69846  0.41380  1.0000
  O   O85       1.0  0.67155  0.54038  0.34997  1.0000
  O   O86       1.0  0.68070  0.67687  0.22960  1.0000
  O   O87       1.0  0.68134  0.13829  0.17239  1.0000
  O   O88       1.0  0.69590  0.07213  0.44656  1.0000
  O   O89       1.0  0.69691  0.73165  0.31400  1.0000
  O   O90       1.0  0.70431  0.23077  0.07022  1.0000
  O   O91       1.0  0.71004  0.04501  0.08831  1.0000
  O   O92       1.0  0.72661  0.07193  0.35726  1.0000
  O   O93       1.0  0.73735  0.41518  0.17376  1.0000
  O   O94       1.0  0.74236  0.32199  0.30494  1.0000
  O   O95       1.0  0.74844  0.92165  0.29570  1.0000
  O   O96       1.0  0.75006  0.12821  0.26869  1.0000
  O   O97       1.0  0.76359  0.94318  0.20331  1.0000
  O   O98       1.0  0.76939  0.79789  0.07028  1.0000
  O   O99       1.0  0.77308  0.43695  0.44597  1.0000
  O   O100      1.0  0.77337  0.41811  0.01096  1.0000
  O   O101      1.0  0.77397  0.65667  0.14756  1.0000
  O   O102      1.0  0.77699  0.24778  0.39381  1.0000
  O   O103      1.0  0.78665  0.60051  0.06506  1.0000
  O   O104      1.0  0.79201  0.53386  0.26539  1.0000
  O   O105      1.0  0.83804  0.61426  0.40254  1.0000
  O   O106      1.0  0.84096  0.43919  0.10142  1.0000
  O   O107      1.0  0.84231  0.77711  0.23921  1.0000
  O   O108      1.0  0.85446  0.84594  0.41208  1.0000
  O   O109      1.0  0.86909  0.43926  0.36178  1.0000
  O   O110      1.0  0.87246  0.05713  0.13215  1.0000
  O   O111      1.0  0.88702  0.24573  0.14362  1.0000
  O   O112      1.0  0.89599  0.86083  0.13128  1.0000
  O   O113      1.0  0.90056  0.05687  0.40588  1.0000
  O   O114      1.0  0.90375  0.70900  0.33024  1.0000
  O   O115      1.0  0.91186  0.08479  0.31272  1.0000
  O   O116      1.0  0.91280  0.53196  0.17807  1.0000
  O   O117      1.0  0.92079  0.34724  0.23022  1.0000
  O   O118      1.0  0.93102  0.27494  0.31151  1.0000
  O   O119      1.0  0.93103  0.11066  0.21992  1.0000
  O   O120      1.0  0.95916  0.24503  0.44421  1.0000
  O   O121      1.0  0.96875  0.92657  0.27168  1.0000
  O   O122      1.0  0.97026  0.62929  0.06086  1.0000
  O   O123      1.0  0.97495  0.64380  0.24204  1.0000
  O   O124      1.0  0.97744  0.70407  0.14898  1.0000
  O   O125      1.0  0.99950  0.50550  0.30741  1.0000
  O   O126      1.0  0.01084  0.88965  0.35663  1.0000
  Ti  Ti1       1.0  0.01689  0.11299  0.43706  1.0000
  Ti  Ti2       1.0  0.02185  0.83884  0.41899  1.0000
  Ti  Ti3       1.0  0.04178  0.01531  0.32646  1.0000
  Ti  Ti4       1.0  0.04292  0.84986  0.15166  1.0000
  Ti  Ti5       1.0  0.05702  0.60680  0.18696  1.0000
  Ti  Ti6       1.0  0.11009  0.67192  0.05996  1.0000
  Ti  Ti7       1.0  0.12934  0.41458  0.07908  1.0000
  Ti  Ti8       1.0  0.13708  0.55482  0.28346  1.0000
  Ti  Ti9       1.0  0.14306  0.35666  0.19173  1.0000
  Ti  Ti10      1.0  0.16590  0.87386  0.03345  1.0000
  Ti  Ti11      1.0  0.18364  0.43042  0.40307  1.0000
  Ti  Ti12      1.0  0.19294  0.70402  0.36711  1.0000
  Ti  Ti13      1.0  0.21779  0.16525  0.07825  1.0000
  Ti  Ti14      1.0  0.23351  0.20418  0.37954  1.0000
  Ti  Ti15      1.0  0.24034  0.05469  0.27292  1.0000
  Ti  Ti16      1.0  0.24243  0.77788  0.21660  1.0000
  Ti  Ti17      1.0  0.24253  0.98746  0.17012  1.0000
  Ti  Ti18      1.0  0.27478  0.32100  0.28111  1.0000
  Ti  Ti19      1.0  0.28767  0.61261  0.11243  1.0000
  Ti  Ti20      1.0  0.29007  0.92419  0.38158  1.0000
  Ti  Ti21      1.0  0.36013  0.38571  0.15088  1.0000
  Ti  Ti22      1.0  0.36252  0.00333  0.05058  1.0000
  Ti  Ti23      1.0  0.39088  0.76745  0.04069  1.0000
  Ti  Ti24      1.0  0.40508  0.51038  0.28631  1.0000
  Ti  Ti25      1.0  0.42065  0.74314  0.31099  1.0000
  Ti  Ti26      1.0  0.42447  0.58344  0.41228  1.0000
  Ti  Ti27      1.0  0.42603  0.13503  0.33885  1.0000
  Ti  Ti28      1.0  0.42810  0.27963  0.03441  1.0000
  Ti  Ti29      1.0  0.42890  0.15970  0.14995  1.0000
  Ti  Ti30      1.0  0.45863  0.93498  0.24741  1.0000
  Ti  Ti31      1.0  0.46664  0.36543  0.40825  1.0000
  Ti  Ti32      1.0  0.47696  0.63015  0.18381  1.0000
  Ti  Ti33      1.0  0.49136  0.50586  0.06883  1.0000
  Ti  Ti34      1.0  0.50022  0.89102  0.14372  1.0000
  Ti  Ti35      1.0  0.54287  0.78920  0.41421  1.0000
  Ti  Ti36      1.0  0.58701  0.33003  0.30077  1.0000
  Ti  Ti37      1.0  0.58954  0.10832  0.06121  1.0000
  Ti  Ti38      1.0  0.59348  0.40593  0.19904  1.0000
  Ti  Ti39      1.0  0.61714  0.13839  0.23524  1.0000
  Ti  Ti40      1.0  0.61994  0.97393  0.33259  1.0000
  Ti  Ti41      1.0  0.63202  0.74877  0.08197  1.0000
  Ti  Ti42      1.0  0.63452  0.18684  0.41349  1.0000
  Ti  Ti43      1.0  0.65198  0.59537  0.28849  1.0000
  Ti  Ti44      1.0  0.65609  0.34165  0.02964  1.0000
  Ti  Ti45      1.0  0.69238  0.54261  0.41713  1.0000
  Ti  Ti46      1.0  0.69762  0.82600  0.24586  1.0000
  Ti  Ti47      1.0  0.71154  0.52383  0.11971  1.0000
  Ti  Ti48      1.0  0.77239  0.16855  0.12254  1.0000
  Ti  Ti49      1.0  0.77254  0.94168  0.13182  1.0000
  Ti  Ti50      1.0  0.77818  0.97977  0.41097  1.0000
  Ti  Ti51      1.0  0.78461  0.73943  0.37116  1.0000
  Ti  Ti52      1.0  0.80777  0.19049  0.32995  1.0000
  Ti  Ti53      1.0  0.83125  0.63382  0.21501  1.0000
  Ti  Ti54      1.0  0.84664  0.01043  0.25636  1.0000
  Ti  Ti55      1.0  0.87202  0.41568  0.29297  1.0000
  Ti  Ti56      1.0  0.87293  0.71457  0.09928  1.0000
  Ti  Ti57      1.0  0.88139  0.35682  0.41902  1.0000
  Ti  Ti58      1.0  0.88218  0.49728  0.04043  1.0000
  Ti  Ti59      1.0  0.89481  0.38773  0.16334  1.0000
  Ti  Ti60      1.0  0.96925  0.56858  0.37187  1.0000
  Ti  Ti61      1.0  0.98566  0.77563  0.27766  1.0000
  Ti  Ti62      1.0  0.99653  0.12463  0.15491  1.0000
  Ti  Ti63      1.0  0.00766  0.22209  0.25616  1.0000
